/*--------------------------------*- C++ -*----------------------------------*\
| =========                 |                                                 |
| \\      /  F ield         | OpenFOAM: The Open Source CFD Toolbox           |
|  \\    /   O peration     | Version:  v1912                                 |
|   \\  /    A nd           | Website:  www.openfoam.com                      |
|    \\/     M anipulation  |                                                 |
\*---------------------------------------------------------------------------*/
FoamFile
{
    version	2.0;
    format	ascii;
    class	dictionary;
    object	waveProperties;
}
// * * * * * * * * * * * * * * * * * * * * * * * * * * * * * * * * * * * * * //

seaLevel            -0.9;

seaLevelAsReference true;

relaxationNames     ( inlet );

initializationName  init;

inletCoeffs
{
    waveType            irregular;
    spectrum            JONSWAP;
    N                   200;
    Tsoft               24;
    Hs                  5.8;
    Tp                  12;
    gamma               3.3;
    depth               14.1;
    direction           ( 1 0 0 );
    spectramValues  nonuniform List<scalar> 
201
(
2.13757e-40
3.92739e-33
2.40388e-27
1.07608e-22
6.31464e-19
7.52866e-16
2.5432e-13
3.14086e-11
1.72735e-09
4.93433e-08
8.26389e-07
8.93187e-06
6.72647e-05
0.00037538
0.00163167
0.00575269
0.0170056
0.0433152
0.0972322
0.19599
0.360331
0.612208
0.971883
1.45509
2.07092
2.82071
3.69813
4.69033
5.77973
6.94644
8.17078
9.43586
10.7299
12.0482
13.3943
14.7809
16.2294
17.7688
19.4345
21.265
23.2998
25.5753
28.121
30.9552
34.0804
37.4801
41.116
44.9282
48.8377
52.7518
56.5717
60.2013
63.5563
66.5704
69.2003
71.4265
73.2525
74.7007
75.8079
76.6203
77.1885
77.5633
77.7926
77.9193
77.9796
78.002
78.0075
78.0074
78.0055
77.9975
77.976
77.9306
77.8484
77.7133
77.5072
77.2094
76.7978
76.2491
75.5397
74.6469
73.5498
72.2312
70.6783
68.8846
66.851
64.5867
62.1095
59.4458
56.63
53.7026
50.7087
47.6954
44.7094
41.7945
38.9897
36.3272
33.832
31.5211
29.4038
27.4826
25.7538
24.209
22.8358
21.6195
20.5437
19.5911
18.7447
17.9878
17.3049
16.6819
16.1065
15.568
15.0577
14.5687
14.0956
13.6348
13.1835
12.7403
12.3042
11.8749
11.4526
11.0375
10.6299
10.2303
9.83914
9.45688
9.08387
8.72042
8.36681
8.02324
7.68988
7.36682
7.05414
6.75184
6.4599
6.17826
5.90682
5.64547
5.39405
5.15239
4.92029
4.69755
4.48394
4.27922
4.08315
3.89547
3.71593
3.54426
3.3802
3.22348
3.07384
2.93102
2.79474
2.66477
2.54084
2.42271
2.31013
2.20288
2.10072
2.00342
1.91078
1.82258
1.73863
1.65872
1.58268
1.51031
1.44145
1.37593
1.31359
1.25427
1.19784
1.14415
1.09306
1.04446
0.998207
0.954199
0.91232
0.872466
0.834535
0.798431
0.764064
0.731346
0.700195
0.670533
0.642284
0.615378
0.589748
0.56533
0.542063
0.519889
0.498754
0.478606
0.459396
0.441076
0.423604
0.406935
0.391032
0.375855
0.361369
0.34754
0.334335
)
;

    fspectrum       nonuniform List<scalar> 
201
(
0.0277778
0.0290802
0.0303818
0.031682
0.0329801
0.0342753
0.035567
0.0368543
0.0381367
0.0394134
0.0406836
0.0419468
0.0432022
0.0444492
0.0456869
0.0469148
0.0481322
0.0493384
0.0505328
0.0517147
0.0528834
0.0540383
0.0551787
0.0563041
0.0574139
0.0585073
0.0595838
0.0606429
0.0616839
0.0627063
0.0637094
0.0646929
0.065656
0.0665983
0.0675193
0.0684184
0.0692952
0.0701492
0.0709799
0.0717868
0.0725696
0.0733277
0.0740608
0.0747685
0.0754503
0.0761059
0.076735
0.0773371
0.0779121
0.0784594
0.0789789
0.0794703
0.0799333
0.0803675
0.0807729
0.0811492
0.0814961
0.0818135
0.0821012
0.082359
0.0825869
0.0827846
0.0829521
0.0830892
0.083196
0.0832723
0.0833333
0.0833448
0.0833791
0.0834364
0.0835165
0.0836195
0.0837454
0.0838941
0.0840657
0.08426
0.0844771
0.084717
0.0849796
0.0852648
0.0855727
0.0859032
0.0862562
0.0866318
0.0870298
0.0874501
0.0878928
0.0883578
0.088845
0.0893544
0.0898858
0.0904392
0.0910146
0.0916118
0.0922307
0.0928714
0.0935336
0.0942173
0.0949225
0.0956489
0.0963966
0.0971653
0.0979551
0.0987657
0.0995972
0.100449
0.101322
0.102215
0.103128
0.104062
0.105016
0.105989
0.106982
0.107995
0.109028
0.11008
0.111151
0.112241
0.11335
0.114478
0.115625
0.11679
0.117973
0.119174
0.120394
0.121631
0.122886
0.124158
0.125448
0.126754
0.128078
0.129419
0.130776
0.132149
0.133538
0.134944
0.136365
0.137802
0.139255
0.140722
0.142205
0.143702
0.145215
0.146741
0.148282
0.149836
0.151405
0.152987
0.154582
0.15619
0.157811
0.159445
0.161092
0.16275
0.164421
0.166103
0.167797
0.169502
0.171219
0.172946
0.174683
0.176431
0.178189
0.179957
0.181735
0.183522
0.185318
0.187123
0.188937
0.190759
0.192589
0.194427
0.196273
0.198126
0.199986
0.201853
0.203727
0.205607
0.207493
0.209385
0.211282
0.213185
0.215093
0.217006
0.218923
0.220845
0.22277
0.2247
0.226633
0.228569
0.230507
0.232449
0.234393
0.236339
0.238287
0.240237
0.242188
0.24414
0.246093
0.248046
0.25
)
;

    amplitude           nonuniform List<scalar>
    200
    (
        2.26161e-18
        1.7689e-15
        3.74055e-13
        2.86326e-11
        9.87896e-10
        1.81511e-08
        2.01895e-07
        1.50179e-06
        8.0747e-06
        3.33531e-05
        0.000111025
        0.000309285
        0.00074293
        0.00157615
        0.00301121
        0.00526364
        0.00852993
        0.0129562
        0.0186158
        0.0254985
        0.0335139
        0.0425041
        0.0522622
        0.0625533
        0.0731347
        0.0837725
        0.0942546
        0.1044
        0.114065
        0.123147
        0.131585
        0.139364
        0.146506
        0.153075
        0.159164
        0.164893
        0.170392
        0.175796
        0.181224
        0.18677
        0.192494
        0.198405
        0.204465
        0.210579
        0.216604
        0.222356
        0.227623
        0.232181
        0.23581
        0.238316
        0.239538
        0.239362
        0.237724
        0.234604
        0.230025
        0.224036
        0.216702
        0.208088
        0.198247
        0.1872
        0.174919
        0.161305
        0.14614
        0.129008
        0.10909
        0.0976022
        0.0422674
        0.0732071
        0.0945026
        0.111799
        0.126729
        0.140031
        0.152102
        0.163179
        0.173403
        0.182861
        0.1916
        0.199641
        0.206981
        0.213608
        0.219496
        0.224615
        0.228934
        0.232423
        0.23506
        0.236833
        0.237743
        0.237807
        0.23706
        0.235555
        0.233364
        0.230575
        0.227287
        0.223611
        0.219661
        0.215549
        0.211385
        0.207269
        0.203285
        0.199506
        0.195983
        0.192754
        0.189837
        0.187233
        0.18493
        0.182904
        0.181122
        0.179544
        0.178127
        0.176828
        0.175604
        0.174418
        0.173238
        0.172035
        0.170789
        0.169485
        0.168112
        0.166665
        0.165141
        0.16354
        0.161865
        0.16012
        0.158309
        0.156437
        0.15451
        0.152531
        0.150508
        0.148445
        0.146346
        0.144218
        0.142064
        0.139889
        0.137698
        0.135493
        0.133281
        0.131063
        0.128843
        0.126625
        0.124411
        0.122205
        0.120009
        0.117826
        0.115657
        0.113505
        0.111372
        0.109259
        0.107169
        0.105102
        0.103059
        0.101043
        0.0990533
        0.0970915
        0.0951584
        0.0932545
        0.0913805
        0.0895367
        0.0877237
        0.0859416
        0.0841907
        0.0824712
        0.080783
        0.0791263
        0.0775011
        0.0759071
        0.0743444
        0.0728126
        0.0713117
        0.0698413
        0.0684011
        0.0669909
        0.0656103
        0.0642589
        0.0629364
        0.0616423
        0.0603763
        0.0591379
        0.0579266
        0.0567421
        0.0555838
        0.0544514
        0.0533442
        0.052262
        0.0512041
        0.0501701
        0.0491596
        0.048172
        0.0472069
        0.0462639
        0.0453423
        0.0444419
        0.0435621
        0.0427025
        0.0418625
        0.0410419
        0.0402401
        0.0394567
        0.0386913
        0.0379435
        0.0372128
        0.0364989
    );
    frequency           nonuniform List<scalar>
    200
    (
        0.028429
        0.029731
        0.0310319
        0.0323311
        0.0336277
        0.0349211
        0.0362106
        0.0374955
        0.038775
        0.0400485
        0.0413152
        0.0425745
        0.0438257
        0.045068
        0.0463009
        0.0475235
        0.0487353
        0.0499356
        0.0511237
        0.052299
        0.0534608
        0.0546085
        0.0557414
        0.056859
        0.0579606
        0.0590456
        0.0601134
        0.0611634
        0.0621951
        0.0632079
        0.0642012
        0.0651744
        0.0661272
        0.0670588
        0.0679688
        0.0688568
        0.0697222
        0.0705645
        0.0713833
        0.0721782
        0.0729486
        0.0736942
        0.0744146
        0.0751094
        0.0757781
        0.0764204
        0.0770361
        0.0776246
        0.0781857
        0.0787192
        0.0792246
        0.0797018
        0.0801504
        0.0805702
        0.0809611
        0.0813226
        0.0816548
        0.0819573
        0.0822301
        0.082473
        0.0826857
        0.0828683
        0.0830206
        0.0831426
        0.0832341
        0.0833028
        0.0833391
        0.083362
        0.0834078
        0.0834765
        0.083568
        0.0836825
        0.0838198
        0.0839799
        0.0841628
        0.0843686
        0.0845971
        0.0848483
        0.0851222
        0.0854188
        0.085738
        0.0860797
        0.086444
        0.0868308
        0.0872399
        0.0876715
        0.0881253
        0.0886014
        0.0890997
        0.0896201
        0.0901625
        0.0907269
        0.0913132
        0.0919212
        0.092551
        0.0932025
        0.0938755
        0.0945699
        0.0952857
        0.0960227
        0.0967809
        0.0975602
        0.0983604
        0.0991814
        0.100023
        0.100886
        0.101768
        0.102672
        0.103595
        0.104539
        0.105502
        0.106486
        0.107489
        0.108512
        0.109554
        0.110615
        0.111696
        0.112796
        0.113914
        0.115051
        0.116207
        0.117381
        0.118574
        0.119784
        0.121012
        0.122258
        0.123522
        0.124803
        0.126101
        0.127416
        0.128748
        0.130097
        0.131462
        0.132844
        0.134241
        0.135655
        0.137084
        0.138529
        0.139989
        0.141464
        0.142954
        0.144458
        0.145978
        0.147511
        0.149059
        0.15062
        0.152196
        0.153784
        0.155386
        0.157001
        0.158628
        0.160269
        0.161921
        0.163586
        0.165262
        0.16695
        0.16865
        0.17036
        0.172082
        0.173814
        0.175557
        0.17731
        0.179073
        0.180846
        0.182628
        0.18442
        0.186221
        0.18803
        0.189848
        0.191674
        0.193508
        0.19535
        0.197199
        0.199056
        0.200919
        0.20279
        0.204667
        0.20655
        0.208439
        0.210334
        0.212234
        0.214139
        0.21605
        0.217965
        0.219884
        0.221808
        0.223735
        0.225666
        0.227601
        0.229538
        0.231478
        0.233421
        0.235366
        0.237313
        0.239262
        0.241212
        0.243164
        0.245116
        0.24707
        0.249023
    );
    phaselag            nonuniform List<scalar>
    200
    (
        1.12089
        2.51125
        1.04677
        1.3328
        0.389154
        0.340234
        1.73206
        0.300068
        2.01711
        1.71364
        2.31056
        1.39717
        1.38015
        1.26755
        0.277187
        2.16091
        4.06933
        0.939111
        0.186408
        5.51974
        4.11812
        3.31528
        3.17839
        5.75346
        1.18177
        0.748679
        0.365033
        4.52345
        4.00575
        5.53452
        2.58905
        5.12664
        1.76258
        3.63582
        0.176257
        2.15173
        3.97605
        1.90831
        2.4518
        5.99316
        3.62195
        4.76236
        1.10715
        5.0021
        6.02991
        1.38434
        0.879825
        3.81606
        2.32345
        1.06623
        3.05261
        0.158378
        4.38152
        6.231
        5.91184
        5.56329
        0.696498
        6.27687
        3.80355
        4.70225
        5.52821
        0.109411
        3.5457
        1.0076
        3.74523
        3.72196
        3.15933
        1.4381
        5.63028
        5.61114
        1.14807
        2.96904
        4.09031
        2.25522
        1.68795
        3.83704
        3.63956
        2.56778
        1.36991
        5.963
        3.63401
        4.42252
        6.12138
        1.73234
        4.37034
        5.75004
        1.01244
        5.06684
        5.74372
        4.81599
        3.4859
        4.98874
        4.92541
        0.748423
        5.99634
        2.38745
        4.47038
        2.87249
        3.82554
        3.81748
        2.20044
        4.97362
        0.503333
        0.00756762
        0.945652
        2.19129
        3.84461
        4.58521
        4.75906
        5.21452
        4.26503
        2.10989
        3.35386
        4.10322
        3.84223
        1.44102
        3.57007
        4.85467
        0.224672
        3.03061
        3.38748
        3.71058
        1.73617
        2.0297
        4.459
        1.44932
        4.41715
        2.6462
        4.32181
        1.95951
        0.180489
        0.23907
        0.649941
        0.683822
        0.246637
        1.59559
        2.87511
        4.09125
        6.1808
        1.35099
        3.02258
        4.16264
        3.46087
        0.0932557
        1.98268
        1.01992
        1.53427
        5.55275
        5.87459
        1.75895
        2.30018
        2.97889
        5.46952
        4.03634
        5.00859
        3.64533
        5.48566
        3.14256
        0.0083477
        3.52429
        5.10206
        0.188836
        3.76336
        5.75201
        0.872658
        4.01
        1.06441
        3.74777
        1.81806
        0.96203
        5.09875
        4.84064
        5.12467
        2.27644
        4.93389
        0.824169
        3.29636
        0.184981
        0.0937355
        2.88776
        1.94393
        2.39391
        5.86665
        1.13026
        0.147066
        4.59205
        4.7756
        5.63273
        1.45142
        4.78395
        2.87383
        0.270303
        4.97278
        0.354007
        6.02231
        5.84544
        4.364
        0.803537
        3.31002
        6.18206
    );
    waveNumber          nonuniform List<vector>
    200
    (
        (0.0153049 0 0)
        (0.0160175 0 0)
        (0.016731 0 0)
        (0.0174451 0 0)
        (0.0181596 0 0)
        (0.0188742 0 0)
        (0.0195883 0 0)
        (0.0203018 0 0)
        (0.0210143 0 0)
        (0.0217255 0 0)
        (0.0224349 0 0)
        (0.0231423 0 0)
        (0.0238473 0 0)
        (0.0245495 0 0)
        (0.0252486 0 0)
        (0.0259441 0 0)
        (0.0266358 0 0)
        (0.0273233 0 0)
        (0.028006 0 0)
        (0.0286838 0 0)
        (0.0293562 0 0)
        (0.0300228 0 0)
        (0.0306831 0 0)
        (0.0313369 0 0)
        (0.0319837 0 0)
        (0.032623 0 0)
        (0.0332546 0 0)
        (0.0338779 0 0)
        (0.0344926 0 0)
        (0.0350983 0 0)
        (0.0356945 0 0)
        (0.0362808 0 0)
        (0.0368569 0 0)
        (0.0374222 0 0)
        (0.0379764 0 0)
        (0.0385191 0 0)
        (0.0390499 0 0)
        (0.0395683 0 0)
        (0.0400739 0 0)
        (0.0405664 0 0)
        (0.0410453 0 0)
        (0.0415103 0 0)
        (0.041961 0 0)
        (0.042397 0 0)
        (0.0428179 0 0)
        (0.0432234 0 0)
        (0.0436131 0 0)
        (0.0439866 0 0)
        (0.0443437 0 0)
        (0.0446841 0 0)
        (0.0450073 0 0)
        (0.0453131 0 0)
        (0.0456013 0 0)
        (0.0458715 0 0)
        (0.0461236 0 0)
        (0.0463571 0 0)
        (0.0465721 0 0)
        (0.0467682 0 0)
        (0.0469452 0 0)
        (0.047103 0 0)
        (0.0472414 0 0)
        (0.0473603 0 0)
        (0.0474595 0 0)
        (0.047539 0 0)
        (0.0475987 0 0)
        (0.0476436 0 0)
        (0.0476672 0 0)
        (0.0476822 0 0)
        (0.0477121 0 0)
        (0.047757 0 0)
        (0.0478168 0 0)
        (0.0478916 0 0)
        (0.0479815 0 0)
        (0.0480863 0 0)
        (0.0482062 0 0)
        (0.0483411 0 0)
        (0.0484911 0 0)
        (0.0486562 0 0)
        (0.0488365 0 0)
        (0.049032 0 0)
        (0.0492427 0 0)
        (0.0494687 0 0)
        (0.04971 0 0)
        (0.0499667 0 0)
        (0.0502388 0 0)
        (0.0505264 0 0)
        (0.0508296 0 0)
        (0.0511484 0 0)
        (0.0514829 0 0)
        (0.0518331 0 0)
        (0.0521992 0 0)
        (0.0525812 0 0)
        (0.0529793 0 0)
        (0.0533935 0 0)
        (0.0538239 0 0)
        (0.0542707 0 0)
        (0.0547339 0 0)
        (0.0552137 0 0)
        (0.0557102 0 0)
        (0.0562235 0 0)
        (0.0567538 0 0)
        (0.0573012 0 0)
        (0.0578658 0 0)
        (0.0584478 0 0)
        (0.0590475 0 0)
        (0.0596649 0 0)
        (0.0603002 0 0)
        (0.0609537 0 0)
        (0.0616255 0 0)
        (0.0623158 0 0)
        (0.0630249 0 0)
        (0.063753 0 0)
        (0.0645003 0 0)
        (0.065267 0 0)
        (0.0660535 0 0)
        (0.0668599 0 0)
        (0.0676866 0 0)
        (0.0685339 0 0)
        (0.069402 0 0)
        (0.0702912 0 0)
        (0.0712019 0 0)
        (0.0721344 0 0)
        (0.0730891 0 0)
        (0.0740662 0 0)
        (0.0750663 0 0)
        (0.0760896 0 0)
        (0.0771366 0 0)
        (0.0782077 0 0)
        (0.0793032 0 0)
        (0.0804237 0 0)
        (0.0815696 0 0)
        (0.0827413 0 0)
        (0.0839393 0 0)
        (0.0851642 0 0)
        (0.0864163 0 0)
        (0.0876963 0 0)
        (0.0890047 0 0)
        (0.090342 0 0)
        (0.0917087 0 0)
        (0.0931055 0 0)
        (0.0945328 0 0)
        (0.0959914 0 0)
        (0.0974818 0 0)
        (0.0990046 0 0)
        (0.10056 0 0)
        (0.10215 0 0)
        (0.103773 0 0)
        (0.105432 0 0)
        (0.107126 0 0)
        (0.108857 0 0)
        (0.110624 0 0)
        (0.112428 0 0)
        (0.114271 0 0)
        (0.116152 0 0)
        (0.118073 0 0)
        (0.120034 0 0)
        (0.122035 0 0)
        (0.124077 0 0)
        (0.126161 0 0)
        (0.128288 0 0)
        (0.130457 0 0)
        (0.132669 0 0)
        (0.134925 0 0)
        (0.137225 0 0)
        (0.13957 0 0)
        (0.14196 0 0)
        (0.144395 0 0)
        (0.146876 0 0)
        (0.149402 0 0)
        (0.151975 0 0)
        (0.154594 0 0)
        (0.15726 0 0)
        (0.159972 0 0)
        (0.16273 0 0)
        (0.165535 0 0)
        (0.168387 0 0)
        (0.171285 0 0)
        (0.17423 0 0)
        (0.177221 0 0)
        (0.180257 0 0)
        (0.18334 0 0)
        (0.186468 0 0)
        (0.18964 0 0)
        (0.192858 0 0)
        (0.19612 0 0)
        (0.199425 0 0)
        (0.202774 0 0)
        (0.206166 0 0)
        (0.2096 0 0)
        (0.213076 0 0)
        (0.216593 0 0)
        (0.22015 0 0)
        (0.223748 0 0)
        (0.227384 0 0)
        (0.23106 0 0)
        (0.234773 0 0)
        (0.238523 0 0)
        (0.24231 0 0)
        (0.246133 0 0)
        (0.249991 0 0)
    );

    frequencyAxis
    {
        discretisation      cosineStretchedFrequencyAxis;
        lowerFrequencyCutoff 0.0277778;
        upperFrequencyCutoff 0.25;
        writeSpectrum       true;
    }

    relaxationZone
    {
        relaxationScheme    Spatial;
        relaxationShape     Rectangular;
        beachType           Empty;
        relaxType           INLET;
        startX              ( 0 0 -1 );
        endX                ( 400 0 1 );
        orientation         ( 1 0 0 );
        fieldNames          ( alpha.water U p_rgh);
    }
}

initCoeffs
{
    waveType            potentialCurrent;
    U                   ( 0 0 0 );
    Tsoft               24;
}



// ************************************************************************* //
