/*--------------------------------*- C++ -*----------------------------------*\
| =========                 |                                                 |
| \\      /  F ield         | OpenFOAM: The Open Source CFD Toolbox           |
|  \\    /   O peration     | Version:  v1912                                 |
|   \\  /    A nd           | Website:  www.openfoam.com                      |
|    \\/     M anipulation  |                                                 |
\*---------------------------------------------------------------------------*/
FoamFile
{
    version	2.0;
    format	ascii;
    class	dictionary;
    object	waveProperties;
}
// * * * * * * * * * * * * * * * * * * * * * * * * * * * * * * * * * * * * * //

seaLevel            0.75;

seaLevelAsReference true;

relaxationNames     ( inlet );

initializationName  init;

inletCoeffs
{
    waveType            irregular;
    spectrum            JONSWAP;
    N                   200;
    Tsoft               24;
    Hs                  5.72;
    Tp                  11.93;
    gamma               3.3;
    depth               14.1;
    direction           ( 1 0 0 );
    spectramValues  nonuniform List<scalar> 
201
(
1.93581e-41
4.84696e-34
3.86867e-28
2.17445e-23
1.55132e-19
2.18786e-16
8.5416e-14
1.19537e-11
7.32589e-10
2.29905e-08
4.17901e-07
4.85172e-06
3.88998e-05
0.000229364
0.00104646
0.00385066
0.0118221
0.0311405
0.0720215
0.149088
0.280693
0.487152
0.788241
1.20053
1.73513
2.39634
3.18125
4.08038
5.07912
6.15967
7.30334
8.49282
9.71452
10.9604
12.2296
13.5294
14.875
16.2896
17.8028
19.4491
21.2649
23.2864
25.5453
28.066
30.861
33.9272
37.2431
40.7671
44.4381
48.1785
51.9
55.5107
58.9231
62.0619
64.8699
67.3109
69.371
71.0564
72.3904
73.4088
74.1552
74.6767
75.0205
75.2308
75.347
75.4022
75.4228
75.4279
75.4277
75.4259
75.4181
75.397
75.3526
75.272
75.1398
74.9381
74.6466
74.2438
73.7069
73.0129
72.1396
71.0669
69.778
68.2608
66.5091
64.5244
62.316
59.9018
57.308
54.5686
51.7236
48.8171
45.8951
43.0031
40.1835
37.4739
34.9051
32.5008
30.2769
28.2419
26.3975
24.7396
23.2596
21.9451
20.7815
19.7527
18.8418
18.0322
17.3078
16.6536
16.056
15.5033
14.9853
14.4936
14.0219
13.5651
13.1198
12.6835
12.2548
11.833
11.4179
11.0095
10.6082
10.2143
9.82827
9.45053
9.08148
8.72148
8.37084
8.0298
7.69855
7.37726
7.066
6.76483
6.47375
6.19274
5.92172
5.6606
5.40926
5.16753
4.93525
4.71223
4.49826
4.29311
4.09655
3.90834
3.72824
3.55598
3.39131
3.23398
3.08372
2.94027
2.80339
2.67282
2.5483
2.4296
2.31647
2.20868
2.106
2.00822
1.91511
1.82646
1.74208
1.66177
1.58534
1.51262
1.44342
1.37759
1.31495
1.25536
1.19867
1.14474
1.09343
1.04462
0.998184
0.954002
0.911963
0.871963
0.833898
0.797672
0.763195
0.730377
0.699135
0.669392
0.641071
0.614101
0.588415
0.563947
0.540637
0.518426
0.49726
0.477086
0.457854
0.439517
0.422032
0.405354
0.389445
0.374265
0.35978
0.345953
0.332754
)
;

    fspectrum       nonuniform List<scalar> 
201
(
0.0277778
0.0290723
0.0303661
0.0316586
0.0329489
0.0342365
0.0355207
0.0368007
0.0380759
0.0393457
0.0406092
0.0418659
0.0431151
0.0443561
0.0455883
0.0468109
0.0480234
0.0492251
0.0504153
0.0515935
0.052759
0.0539111
0.0550493
0.0561729
0.0572814
0.0583742
0.0594506
0.0605101
0.0615522
0.0625762
0.0635816
0.064568
0.0655347
0.0664813
0.0674072
0.068312
0.0691952
0.0700562
0.0708947
0.0717102
0.0725023
0.0732705
0.0740144
0.0747336
0.0754278
0.0760966
0.0767395
0.0773564
0.0779468
0.0785104
0.079047
0.0795562
0.0800377
0.0804914
0.080917
0.0813142
0.0816828
0.0820227
0.0823336
0.0826155
0.082868
0.0830912
0.0832849
0.0834489
0.0835832
0.0836878
0.0837625
0.0838223
0.0838339
0.0838687
0.0839266
0.0840077
0.084112
0.0842394
0.0843899
0.0845635
0.0847602
0.0849799
0.0852227
0.0854884
0.0857771
0.0860887
0.0864232
0.0867805
0.0871605
0.0875633
0.0879887
0.0884367
0.0889073
0.0894003
0.0899157
0.0904535
0.0910135
0.0915957
0.0922
0.0928263
0.0934745
0.0941445
0.0948363
0.0955497
0.0962847
0.0970411
0.0978189
0.0986179
0.099438
0.100279
0.101141
0.102024
0.102927
0.103851
0.104795
0.10576
0.106745
0.107749
0.108774
0.109818
0.110882
0.111965
0.113067
0.114189
0.115329
0.116488
0.117666
0.118862
0.120077
0.12131
0.12256
0.123829
0.125115
0.126418
0.127739
0.129077
0.130431
0.131803
0.133191
0.134595
0.136015
0.137451
0.138903
0.14037
0.141853
0.14335
0.144863
0.14639
0.147932
0.149487
0.151057
0.152641
0.154238
0.155849
0.157473
0.159109
0.160759
0.162421
0.164095
0.165781
0.167478
0.169188
0.170908
0.17264
0.174382
0.176135
0.177898
0.179671
0.181455
0.183247
0.185049
0.18686
0.18868
0.190508
0.192345
0.19419
0.196042
0.197902
0.199769
0.201644
0.203525
0.205412
0.207306
0.209206
0.211111
0.213022
0.214938
0.216859
0.218784
0.220714
0.222648
0.224586
0.226527
0.228472
0.230419
0.232369
0.234322
0.236277
0.238234
0.240192
0.242152
0.244113
0.246075
0.248037
0.25
)
;

    amplitude           nonuniform List<scalar>
    200
    (
        7.92113e-19
        7.07486e-16
        1.67642e-13
        1.41494e-11
        5.30953e-10
        1.04866e-08
        1.24139e-07
        9.74398e-07
        5.48832e-06
        2.36027e-05
        8.13778e-05
        0.000233781
        0.000576988
        0.0012538
        0.00244693
        0.00435926
        0.00718525
        0.011081
        0.0161402
        0.0223806
        0.0297432
        0.0381004
        0.0472721
        0.0570451
        0.0671911
        0.0774843
        0.0877144
        0.0976968
        0.107279
        0.116347
        0.124823
        0.132671
        0.139895
        0.146534
        0.152664
        0.158384
        0.163812
        0.169075
        0.174295
        0.179576
        0.184996
        0.190595
        0.196365
        0.202253
        0.208153
        0.213918
        0.219364
        0.224288
        0.228476
        0.231728
        0.233867
        0.234751
        0.234285
        0.232416
        0.229136
        0.224469
        0.218468
        0.211193
        0.202706
        0.193052
        0.182248
        0.170263
        0.156992
        0.142222
        0.125544
        0.106159
        0.094979
        0.0418136
        0.0724212
        0.093488
        0.110598
        0.125368
        0.138526
        0.150466
        0.16142
        0.171531
        0.180881
        0.189518
        0.19746
        0.204706
        0.211242
        0.217043
        0.222078
        0.226316
        0.229729
        0.232294
        0.233999
        0.234848
        0.234857
        0.234063
        0.232521
        0.230304
        0.227498
        0.224206
        0.220536
        0.216604
        0.212521
        0.208396
        0.204326
        0.200396
        0.196675
        0.193214
        0.190046
        0.187189
        0.184643
        0.182394
        0.180417
        0.178677
        0.177135
        0.175748
        0.174471
        0.173265
        0.172092
        0.17092
        0.169723
        0.16848
        0.167178
        0.165807
        0.16436
        0.162838
        0.16124
        0.159569
        0.157829
        0.156025
        0.15416
        0.152241
        0.150273
        0.148262
        0.146211
        0.144127
        0.142013
        0.139876
        0.137718
        0.135545
        0.13336
        0.131167
        0.128969
        0.126771
        0.124576
        0.122385
        0.120202
        0.11803
        0.115871
        0.113727
        0.111601
        0.109493
        0.107406
        0.105341
        0.1033
        0.101284
        0.0992942
        0.0973312
        0.095396
        0.0934894
        0.091612
        0.0897644
        0.0879469
        0.0861601
        0.0844041
        0.0826791
        0.0809853
        0.0793227
        0.0776913
        0.0760911
        0.074522
        0.0729838
        0.0714763
        0.0699994
        0.0685527
        0.0671359
        0.0657488
        0.064391
        0.0630621
        0.0617617
        0.0604894
        0.0592448
        0.0580276
        0.0568371
        0.055673
        0.0545349
        0.0534222
        0.0523345
        0.0512713
        0.0502322
        0.0492166
        0.0482242
        0.0472543
        0.0463067
        0.0453807
        0.0444759
        0.0435919
        0.0427282
        0.0418844
        0.04106
        0.0402545
        0.0394676
        0.0386988
        0.0379477
        0.0372139
        0.0364969
    );
    frequency           nonuniform List<scalar>
    200
    (
        0.0284251
        0.0297192
        0.0310123
        0.0323038
        0.0335927
        0.0348786
        0.0361607
        0.0374383
        0.0387108
        0.0399774
        0.0412376
        0.0424905
        0.0437356
        0.0449722
        0.0461996
        0.0474172
        0.0486243
        0.0498202
        0.0510044
        0.0521763
        0.053335
        0.0544802
        0.0556111
        0.0567272
        0.0578278
        0.0589124
        0.0599803
        0.0610311
        0.0620642
        0.0630789
        0.0640748
        0.0650514
        0.066008
        0.0669443
        0.0678596
        0.0687536
        0.0696257
        0.0704755
        0.0713025
        0.0721062
        0.0728864
        0.0736424
        0.074374
        0.0750807
        0.0757622
        0.076418
        0.077048
        0.0776516
        0.0782286
        0.0787787
        0.0793016
        0.079797
        0.0802646
        0.0807042
        0.0811156
        0.0814985
        0.0818528
        0.0821782
        0.0824746
        0.0827418
        0.0829796
        0.083188
        0.0833669
        0.0835161
        0.0836355
        0.0837251
        0.0837924
        0.0838281
        0.0838513
        0.0838976
        0.0839671
        0.0840598
        0.0841757
        0.0843146
        0.0844767
        0.0846618
        0.0848701
        0.0851013
        0.0853556
        0.0856328
        0.0859329
        0.086256
        0.0866018
        0.0869705
        0.0873619
        0.087776
        0.0882127
        0.088672
        0.0891538
        0.089658
        0.0901846
        0.0907335
        0.0913046
        0.0918978
        0.0925131
        0.0931504
        0.0938095
        0.0944904
        0.095193
        0.0959172
        0.0966629
        0.09743
        0.0982184
        0.0990279
        0.0998585
        0.10071
        0.101582
        0.102475
        0.103389
        0.104323
        0.105278
        0.106252
        0.107247
        0.108261
        0.109296
        0.11035
        0.111423
        0.112516
        0.113628
        0.114759
        0.115909
        0.117077
        0.118264
        0.11947
        0.120693
        0.121935
        0.123195
        0.124472
        0.125767
        0.127079
        0.128408
        0.129754
        0.131117
        0.132497
        0.133893
        0.135305
        0.136733
        0.138177
        0.139636
        0.141111
        0.142601
        0.144106
        0.145626
        0.147161
        0.148709
        0.150272
        0.151849
        0.15344
        0.155044
        0.156661
        0.158291
        0.159934
        0.16159
        0.163258
        0.164938
        0.166629
        0.168333
        0.170048
        0.171774
        0.173511
        0.175259
        0.177017
        0.178785
        0.180563
        0.182351
        0.184148
        0.185955
        0.18777
        0.189594
        0.191427
        0.193267
        0.195116
        0.196972
        0.198836
        0.200707
        0.202584
        0.204469
        0.206359
        0.208256
        0.210158
        0.212067
        0.21398
        0.215898
        0.217822
        0.219749
        0.221681
        0.223617
        0.225556
        0.227499
        0.229445
        0.231394
        0.233346
        0.2353
        0.237256
        0.239213
        0.241172
        0.243133
        0.245094
        0.247056
        0.249019
    );
    phaselag            nonuniform List<scalar>
    200
    (
        1.12089
        2.51125
        1.04677
        1.3328
        0.389154
        0.340234
        1.73206
        0.300068
        2.01711
        1.71364
        2.31056
        1.39717
        1.38015
        1.26755
        0.277187
        2.16091
        4.06933
        0.939111
        0.186408
        5.51974
        4.11812
        3.31528
        3.17839
        5.75346
        1.18177
        0.748679
        0.365033
        4.52345
        4.00575
        5.53452
        2.58905
        5.12664
        1.76258
        3.63582
        0.176257
        2.15173
        3.97605
        1.90831
        2.4518
        5.99316
        3.62195
        4.76236
        1.10715
        5.0021
        6.02991
        1.38434
        0.879825
        3.81606
        2.32345
        1.06623
        3.05261
        0.158378
        4.38152
        6.231
        5.91184
        5.56329
        0.696498
        6.27687
        3.80355
        4.70225
        5.52821
        0.109411
        3.5457
        1.0076
        3.74523
        3.72196
        3.15933
        1.4381
        5.63028
        5.61114
        1.14807
        2.96904
        4.09031
        2.25522
        1.68795
        3.83704
        3.63956
        2.56778
        1.36991
        5.963
        3.63401
        4.42252
        6.12138
        1.73234
        4.37034
        5.75004
        1.01244
        5.06684
        5.74372
        4.81599
        3.4859
        4.98874
        4.92541
        0.748423
        5.99634
        2.38745
        4.47038
        2.87249
        3.82554
        3.81748
        2.20044
        4.97362
        0.503333
        0.00756762
        0.945652
        2.19129
        3.84461
        4.58521
        4.75906
        5.21452
        4.26503
        2.10989
        3.35386
        4.10322
        3.84223
        1.44102
        3.57007
        4.85467
        0.224672
        3.03061
        3.38748
        3.71058
        1.73617
        2.0297
        4.459
        1.44932
        4.41715
        2.6462
        4.32181
        1.95951
        0.180489
        0.23907
        0.649941
        0.683822
        0.246637
        1.59559
        2.87511
        4.09125
        6.1808
        1.35099
        3.02258
        4.16264
        3.46087
        0.0932557
        1.98268
        1.01992
        1.53427
        5.55275
        5.87459
        1.75895
        2.30018
        2.97889
        5.46952
        4.03634
        5.00859
        3.64533
        5.48566
        3.14256
        0.0083477
        3.52429
        5.10206
        0.188836
        3.76336
        5.75201
        0.872658
        4.01
        1.06441
        3.74777
        1.81806
        0.96203
        5.09875
        4.84064
        5.12467
        2.27644
        4.93389
        0.824169
        3.29636
        0.184981
        0.0937355
        2.88776
        1.94393
        2.39391
        5.86665
        1.13026
        0.147066
        4.59205
        4.7756
        5.63273
        1.45142
        4.78395
        2.87383
        0.270303
        4.97278
        0.354007
        6.02231
        5.84544
        4.364
        0.803537
        3.31002
        6.18206
    );
    waveNumber          nonuniform List<vector>
    200
    (
        (0.0153028 0 0)
        (0.016011 0 0)
        (0.0167202 0 0)
        (0.0174301 0 0)
        (0.0181404 0 0)
        (0.0188506 0 0)
        (0.0195606 0 0)
        (0.0202701 0 0)
        (0.0209785 0 0)
        (0.0216857 0 0)
        (0.0223914 0 0)
        (0.023095 0 0)
        (0.0237965 0 0)
        (0.0244952 0 0)
        (0.025191 0 0)
        (0.0258835 0 0)
        (0.0265723 0 0)
        (0.0272571 0 0)
        (0.0279374 0 0)
        (0.0286129 0 0)
        (0.0292833 0 0)
        (0.0299481 0 0)
        (0.030607 0 0)
        (0.0312597 0 0)
        (0.0319056 0 0)
        (0.0325444 0 0)
        (0.0331758 0 0)
        (0.0337993 0 0)
        (0.0344145 0 0)
        (0.0350211 0 0)
        (0.0356186 0 0)
        (0.0362066 0 0)
        (0.0367847 0 0)
        (0.0373526 0 0)
        (0.0379098 0 0)
        (0.0384559 0 0)
        (0.0389906 0 0)
        (0.0395134 0 0)
        (0.0400239 0 0)
        (0.0405218 0 0)
        (0.0410066 0 0)
        (0.041478 0 0)
        (0.0419356 0 0)
        (0.042379 0 0)
        (0.0428079 0 0)
        (0.0432219 0 0)
        (0.0436206 0 0)
        (0.0440038 0 0)
        (0.0443711 0 0)
        (0.0447221 0 0)
        (0.0450566 0 0)
        (0.0453742 0 0)
        (0.0456747 0 0)
        (0.0459579 0 0)
        (0.0462233 0 0)
        (0.0464709 0 0)
        (0.0467004 0 0)
        (0.0469114 0 0)
        (0.047104 0 0)
        (0.0472778 0 0)
        (0.0474328 0 0)
        (0.0475687 0 0)
        (0.0476854 0 0)
        (0.0477828 0 0)
        (0.0478609 0 0)
        (0.0479195 0 0)
        (0.0479635 0 0)
        (0.0479869 0 0)
        (0.0480021 0 0)
        (0.0480324 0 0)
        (0.0480779 0 0)
        (0.0481386 0 0)
        (0.0482146 0 0)
        (0.0483057 0 0)
        (0.048412 0 0)
        (0.0485337 0 0)
        (0.0486706 0 0)
        (0.0488228 0 0)
        (0.0489903 0 0)
        (0.0491733 0 0)
        (0.0493716 0 0)
        (0.0495854 0 0)
        (0.0498147 0 0)
        (0.0500596 0 0)
        (0.05032 0 0)
        (0.0505962 0 0)
        (0.050888 0 0)
        (0.0511957 0 0)
        (0.0515192 0 0)
        (0.0518587 0 0)
        (0.0522141 0 0)
        (0.0525857 0 0)
        (0.0529735 0 0)
        (0.0533775 0 0)
        (0.053798 0 0)
        (0.0542349 0 0)
        (0.0546885 0 0)
        (0.0551587 0 0)
        (0.0556458 0 0)
        (0.0561499 0 0)
        (0.0566711 0 0)
        (0.0572095 0 0)
        (0.0577654 0 0)
        (0.0583388 0 0)
        (0.0589299 0 0)
        (0.059539 0 0)
        (0.0601661 0 0)
        (0.0608114 0 0)
        (0.0614753 0 0)
        (0.0621578 0 0)
        (0.0628592 0 0)
        (0.0635797 0 0)
        (0.0643195 0 0)
        (0.0650789 0 0)
        (0.0658582 0 0)
        (0.0666576 0 0)
        (0.0674773 0 0)
        (0.0683177 0 0)
        (0.0691791 0 0)
        (0.0700618 0 0)
        (0.070966 0 0)
        (0.0718922 0 0)
        (0.0728406 0 0)
        (0.0738117 0 0)
        (0.0748058 0 0)
        (0.0758233 0 0)
        (0.0768645 0 0)
        (0.0779299 0 0)
        (0.07902 0 0)
        (0.0801351 0 0)
        (0.0812757 0 0)
        (0.0824423 0 0)
        (0.0836353 0 0)
        (0.0848553 0 0)
        (0.0861027 0 0)
        (0.0873781 0 0)
        (0.088682 0 0)
        (0.090015 0 0)
        (0.0913775 0 0)
        (0.0927703 0 0)
        (0.0941938 0 0)
        (0.0956486 0 0)
        (0.0971354 0 0)
        (0.0986548 0 0)
        (0.100207 0 0)
        (0.101794 0 0)
        (0.103415 0 0)
        (0.105071 0 0)
        (0.106762 0 0)
        (0.10849 0 0)
        (0.110255 0 0)
        (0.112058 0 0)
        (0.113899 0 0)
        (0.115779 0 0)
        (0.117699 0 0)
        (0.119659 0 0)
        (0.12166 0 0)
        (0.123702 0 0)
        (0.125786 0 0)
        (0.127913 0 0)
        (0.130083 0 0)
        (0.132296 0 0)
        (0.134554 0 0)
        (0.136856 0 0)
        (0.139203 0 0)
        (0.141595 0 0)
        (0.144033 0 0)
        (0.146517 0 0)
        (0.149048 0 0)
        (0.151625 0 0)
        (0.154249 0 0)
        (0.156919 0 0)
        (0.159637 0 0)
        (0.162402 0 0)
        (0.165213 0 0)
        (0.168072 0 0)
        (0.170978 0 0)
        (0.17393 0 0)
        (0.17693 0 0)
        (0.179975 0 0)
        (0.183067 0 0)
        (0.186205 0 0)
        (0.189388 0 0)
        (0.192616 0 0)
        (0.195889 0 0)
        (0.199207 0 0)
        (0.202568 0 0)
        (0.205972 0 0)
        (0.20942 0 0)
        (0.212909 0 0)
        (0.21644 0 0)
        (0.220012 0 0)
        (0.223624 0 0)
        (0.227276 0 0)
        (0.230967 0 0)
        (0.234696 0 0)
        (0.238463 0 0)
        (0.242267 0 0)
        (0.246107 0 0)
        (0.249982 0 0)
    );

    frequencyAxis
    {
        discretisation      cosineStretchedFrequencyAxis;
        lowerFrequencyCutoff 0.0277778;
        upperFrequencyCutoff 0.25;
        writeSpectrum       true;
    }

    relaxationZone
    {
        relaxationScheme    Spatial;
        relaxationShape     Rectangular;
        beachType           Empty;
        relaxType           INLET;
        startX              ( 0 0 -1 );
        endX                ( 400 0 1 );
        orientation         ( 1 0 0 );
        fieldNames          ( alpha.water U );
    }
}

initCoeffs
{
    waveType            potentialCurrent;
    U                   ( 0 0 0 );
    Tsoft               24;
}



// ************************************************************************* //
