/*--------------------------------*- C++ -*----------------------------------*\
| =========                 |                                                 |
| \\      /  F ield         | OpenFOAM: The Open Source CFD Toolbox           |
|  \\    /   O peration     | Version:  v1912                                 |
|   \\  /    A nd           | Website:  www.openfoam.com                      |
|    \\/     M anipulation  |                                                 |
\*---------------------------------------------------------------------------*/
FoamFile
{
    version	2.0;
    format	ascii;
    class	dictionary;
    object	waveProperties;
}
// * * * * * * * * * * * * * * * * * * * * * * * * * * * * * * * * * * * * * //

seaLevel            -0.02;

seaLevelAsReference true;

relaxationNames     ( inlet );

initializationName  init;

inletCoeffs
{
    waveType            irregular;
    spectrum            JONSWAP;
    N                   200;
    Tsoft               24;
    Hs                  2.24;
    Tp                  15.11;
    gamma               3.3;
    depth               14.1;
    direction           ( 1 0 0 );
    spectramValues  nonuniform List<scalar> 
201
(
3.8298e-15
4.65125e-12
1.1415e-09
8.4466e-08
2.51777e-06
3.73895e-05
0.000323852
0.00184149
0.00751874
0.0236074
0.060099
0.129267
0.242628
0.407684
0.625863
0.892355
1.19769
1.53044
1.8804
2.2416
2.61466
3.00789
3.43701
3.92327
4.49035
5.15998
5.94669
6.85203
7.85982
8.93444
10.024
11.069
12.0131
12.8147
13.4522
13.9252
14.2505
14.455
14.5699
14.6251
14.6457
14.6507
14.6507
14.6504
14.6489
14.645
14.6367
14.6217
14.597
14.5593
14.5048
14.4295
14.329
14.199
14.0353
13.8341
13.5919
13.3063
12.9761
12.6012
12.183
11.7247
11.2309
10.7078
10.1628
9.60412
9.04041
8.48039
7.93233
7.40361
6.90048
6.4278
5.989
5.5861
5.21976
4.88952
4.59395
4.33091
4.09772
3.89135
3.70863
3.54635
3.40137
3.27075
3.1518
3.04213
2.93969
2.84278
2.75003
2.66039
2.57311
2.48767
2.40373
2.32113
2.23979
2.15971
2.08095
2.00358
1.92769
1.85336
1.78069
1.70973
1.64056
1.57324
1.50781
1.4443
1.38274
1.32314
1.26551
1.20985
1.15614
1.10438
1.05454
1.0066
0.960524
0.916276
0.873819
0.833111
0.794109
0.756766
0.721035
0.686866
0.65421
0.623016
0.593234
0.564814
0.537705
0.511856
0.48722
0.463746
0.441389
0.420101
0.399836
0.380551
0.362203
0.344749
0.328149
0.312364
0.297357
0.283092
0.269532
0.256645
0.244398
0.23276
0.221702
0.211196
0.201213
0.191729
0.182718
0.174156
0.166022
0.158293
0.15095
0.143972
0.137341
0.131039
0.12505
0.119358
0.113947
0.108803
0.103913
0.0992629
0.0948409
0.0906354
0.0866351
0.0828297
0.079209
0.0757636
0.0724847
0.0693636
0.0663923
0.0635632
0.060869
0.0583029
0.0558584
0.0535293
0.0513098
0.0491943
0.0471776
0.0452547
0.043421
0.041672
0.0400034
0.0384113
0.0368918
0.0354414
0.0340566
0.0327343
0.0314712
0.0302647
0.0291118
0.02801
0.0269568
0.0259498
0.0249869
0.0240659
0.0231848
0.0223417
0.0215348
0.0207624
0.0200228
)
;

    fspectrum       nonuniform List<scalar> 
201
(
0.0277778
0.0292138
0.0306477
0.0320776
0.0335016
0.0349175
0.0363234
0.0377174
0.0390974
0.0404617
0.0418082
0.0431351
0.0444405
0.0457226
0.0469796
0.0482097
0.0494113
0.0505826
0.051722
0.0528279
0.0538988
0.0549332
0.0559296
0.0568866
0.0578029
0.0586772
0.0595083
0.060295
0.0610362
0.061731
0.0623782
0.062977
0.0635266
0.0640263
0.0644752
0.0648728
0.0652185
0.0655118
0.0657524
0.0659399
0.066074
0.0661813
0.0661903
0.0662172
0.0662621
0.0663248
0.0664055
0.0665042
0.0666207
0.0667551
0.0669074
0.0670776
0.0672657
0.0674715
0.0676952
0.0679367
0.068196
0.0684729
0.0687677
0.0690801
0.0694101
0.0697578
0.0701231
0.0705059
0.0709062
0.071324
0.0717593
0.072212
0.072682
0.0731693
0.0736739
0.0741956
0.0747346
0.0752906
0.0758637
0.0764538
0.0770609
0.0776848
0.0783255
0.078983
0.0796572
0.080348
0.0810553
0.0817792
0.0825194
0.083276
0.0840489
0.084838
0.0856432
0.0864644
0.0873016
0.0881547
0.0890236
0.0899082
0.0908084
0.0917241
0.0926553
0.0936019
0.0945637
0.0955407
0.0965327
0.0975398
0.0985617
0.0995984
0.10065
0.101716
0.102796
0.103891
0.105
0.106123
0.10726
0.108412
0.109577
0.110755
0.111948
0.113153
0.114372
0.115605
0.11685
0.118109
0.11938
0.120664
0.121961
0.12327
0.124592
0.125926
0.127271
0.128629
0.129999
0.131381
0.132774
0.134178
0.135594
0.137021
0.138459
0.139908
0.141367
0.142837
0.144318
0.145809
0.14731
0.148821
0.150343
0.151873
0.153414
0.154963
0.156522
0.158091
0.159668
0.161254
0.162848
0.164452
0.166063
0.167683
0.16931
0.170946
0.172589
0.17424
0.175898
0.177564
0.179236
0.180916
0.182602
0.184295
0.185994
0.187699
0.189411
0.191128
0.192852
0.19458
0.196315
0.198054
0.199798
0.201548
0.203302
0.205061
0.206824
0.208591
0.210362
0.212137
0.213916
0.215699
0.217484
0.219273
0.221065
0.22286
0.224657
0.226457
0.228259
0.230063
0.23187
0.233678
0.235487
0.237298
0.23911
0.240924
0.242738
0.244553
0.246368
0.248184
0.25
)
;

    amplitude           nonuniform List<scalar>
    200
    (
        8.17587e-08
        1.282e-06
        1.1064e-05
        6.08718e-05
        0.000237708
        0.000712656
        0.00173737
        0.00359414
        0.00651642
        0.0106165
        0.0158514
        0.0220334
        0.028875
        0.036044
        0.0432161
        0.0501132
        0.0565287
        0.0623407
        0.0675177
        0.0721148
        0.0762611
        0.0801348
        0.0839277
        0.0878032
        0.091855
        0.0960763
        0.100344
        0.104427
        0.108015
        0.110773
        0.112389
        0.112633
        0.111375
        0.108589
        0.104331
        0.0986949
        0.0917643
        0.0835621
        0.0739794
        0.0626489
        0.0560889
        0.0162123
        0.02808
        0.0362488
        0.0428841
        0.0486127
        0.0537175
        0.0583518
        0.0626058
        0.0665348
        0.0701723
        0.0735368
        0.0766362
        0.079471
        0.0820358
        0.0843215
        0.0863167
        0.0880094
        0.0893881
        0.0904439
        0.0911712
        0.0915696
        0.0916446
        0.0914082
        0.0908796
        0.0900847
        0.0890558
        0.0878302
        0.0864491
        0.0849557
        0.0833935
        0.0818042
        0.0802266
        0.0786945
        0.0772361
        0.0758734
        0.0746211
        0.0734878
        0.0724753
        0.0715801
        0.0707936
        0.0701036
        0.0694952
        0.068952
        0.0684572
        0.0679944
        0.0675487
        0.0671067
        0.0666577
        0.0661928
        0.0657057
        0.0651921
        0.0646494
        0.0640764
        0.0634731
        0.0628401
        0.0621789
        0.0614911
        0.0607786
        0.0600433
        0.0592873
        0.0585126
        0.0577213
        0.0569153
        0.0560965
        0.0552667
        0.0544277
        0.0535812
        0.0527288
        0.0518721
        0.0510124
        0.0501512
        0.0492897
        0.0484292
        0.0475708
        0.0467155
        0.0458645
        0.0450185
        0.0441784
        0.043345
        0.0425191
        0.0417012
        0.040892
        0.040092
        0.0393017
        0.0385216
        0.0377519
        0.036993
        0.0362453
        0.035509
        0.0347843
        0.0340713
        0.0333703
        0.0326812
        0.0320043
        0.0313395
        0.030687
        0.0300466
        0.0294184
        0.0288023
        0.0281983
        0.0276064
        0.0270263
        0.0264581
        0.0259017
        0.0253568
        0.0248234
        0.0243014
        0.0237905
        0.0232907
        0.0228018
        0.0223235
        0.0218558
        0.0213985
        0.0209513
        0.0205142
        0.0200869
        0.0196692
        0.019261
        0.0188621
        0.0184723
        0.0180914
        0.0177192
        0.0173556
        0.0170003
        0.0166533
        0.0163142
        0.0159831
        0.0156595
        0.0153435
        0.0150348
        0.0147332
        0.0144387
        0.014151
        0.0138699
        0.0135954
        0.0133273
        0.0130654
        0.0128095
        0.0125595
        0.0123154
        0.0120769
        0.0118438
        0.0116162
        0.0113938
        0.0111765
        0.0109642
        0.0107568
        0.0105541
        0.010356
        0.0101624
        0.0099733
        0.00978845
        0.00960778
        0.00943119
        0.00925859
        0.00908987
        0.00892494
        0.00876369
        0.00860605
    );
    frequency           nonuniform List<scalar>
    200
    (
        0.0284958
        0.0299307
        0.0313627
        0.0327896
        0.0342095
        0.0356204
        0.0370204
        0.0384074
        0.0397796
        0.0411349
        0.0424716
        0.0437878
        0.0450815
        0.0463511
        0.0475946
        0.0488105
        0.0499969
        0.0511523
        0.052275
        0.0533634
        0.054416
        0.0554314
        0.0564081
        0.0573447
        0.05824
        0.0590927
        0.0599016
        0.0606656
        0.0613836
        0.0620546
        0.0626776
        0.0632518
        0.0637765
        0.0642507
        0.064674
        0.0650456
        0.0653652
        0.0656321
        0.0658461
        0.0660069
        0.0661276
        0.0661858
        0.0662038
        0.0662396
        0.0662935
        0.0663652
        0.0664549
        0.0665624
        0.0666879
        0.0668313
        0.0669925
        0.0671717
        0.0673686
        0.0675834
        0.067816
        0.0680663
        0.0683345
        0.0686203
        0.0689239
        0.0692451
        0.0695839
        0.0699404
        0.0703145
        0.0707061
        0.0711151
        0.0715417
        0.0719856
        0.072447
        0.0729256
        0.0734216
        0.0739348
        0.0744651
        0.0750126
        0.0755772
        0.0761588
        0.0767573
        0.0773728
        0.0780051
        0.0786542
        0.0793201
        0.0800026
        0.0807016
        0.0814172
        0.0821493
        0.0828977
        0.0836625
        0.0844434
        0.0852406
        0.0860538
        0.086883
        0.0877282
        0.0885891
        0.0894659
        0.0903583
        0.0912662
        0.0921897
        0.0931286
        0.0940828
        0.0950522
        0.0960367
        0.0970362
        0.0980507
        0.09908
        0.100124
        0.101183
        0.102256
        0.103344
        0.104445
        0.105562
        0.106692
        0.107836
        0.108994
        0.110166
        0.111351
        0.11255
        0.113763
        0.114989
        0.116228
        0.11748
        0.118744
        0.120022
        0.121313
        0.122616
        0.123931
        0.125259
        0.126598
        0.12795
        0.129314
        0.13069
        0.132077
        0.133476
        0.134886
        0.136307
        0.13774
        0.139183
        0.140637
        0.142102
        0.143578
        0.145064
        0.14656
        0.148066
        0.149582
        0.151108
        0.152643
        0.154189
        0.155743
        0.157307
        0.158879
        0.160461
        0.162051
        0.16365
        0.165257
        0.166873
        0.168497
        0.170128
        0.171768
        0.173415
        0.175069
        0.176731
        0.1784
        0.180076
        0.181759
        0.183448
        0.185144
        0.186847
        0.188555
        0.19027
        0.19199
        0.193716
        0.195447
        0.197184
        0.198926
        0.200673
        0.202425
        0.204181
        0.205942
        0.207707
        0.209476
        0.21125
        0.213027
        0.214807
        0.216591
        0.218379
        0.220169
        0.221962
        0.223758
        0.225557
        0.227358
        0.229161
        0.230967
        0.232774
        0.234582
        0.236393
        0.238204
        0.240017
        0.241831
        0.243645
        0.245461
        0.247276
        0.249092
    );
    phaselag            nonuniform List<scalar>
    200
    (
        1.12089
        2.51125
        1.04677
        1.3328
        0.389154
        0.340234
        1.73206
        0.300068
        2.01711
        1.71364
        2.31056
        1.39717
        1.38015
        1.26755
        0.277187
        2.16091
        4.06933
        0.939111
        0.186408
        5.51974
        4.11812
        3.31528
        3.17839
        5.75346
        1.18177
        0.748679
        0.365033
        4.52345
        4.00575
        5.53452
        2.58905
        5.12664
        1.76258
        3.63582
        0.176257
        2.15173
        3.97605
        1.90831
        2.4518
        5.99316
        3.62195
        4.76236
        1.10715
        5.0021
        6.02991
        1.38434
        0.879825
        3.81606
        2.32345
        1.06623
        3.05261
        0.158378
        4.38152
        6.231
        5.91184
        5.56329
        0.696498
        6.27687
        3.80355
        4.70225
        5.52821
        0.109411
        3.5457
        1.0076
        3.74523
        3.72196
        3.15933
        1.4381
        5.63028
        5.61114
        1.14807
        2.96904
        4.09031
        2.25522
        1.68795
        3.83704
        3.63956
        2.56778
        1.36991
        5.963
        3.63401
        4.42252
        6.12138
        1.73234
        4.37034
        5.75004
        1.01244
        5.06684
        5.74372
        4.81599
        3.4859
        4.98874
        4.92541
        0.748423
        5.99634
        2.38745
        4.47038
        2.87249
        3.82554
        3.81748
        2.20044
        4.97362
        0.503333
        0.00756762
        0.945652
        2.19129
        3.84461
        4.58521
        4.75906
        5.21452
        4.26503
        2.10989
        3.35386
        4.10322
        3.84223
        1.44102
        3.57007
        4.85467
        0.224672
        3.03061
        3.38748
        3.71058
        1.73617
        2.0297
        4.459
        1.44932
        4.41715
        2.6462
        4.32181
        1.95951
        0.180489
        0.23907
        0.649941
        0.683822
        0.246637
        1.59559
        2.87511
        4.09125
        6.1808
        1.35099
        3.02258
        4.16264
        3.46087
        0.0932557
        1.98268
        1.01992
        1.53427
        5.55275
        5.87459
        1.75895
        2.30018
        2.97889
        5.46952
        4.03634
        5.00859
        3.64533
        5.48566
        3.14256
        0.0083477
        3.52429
        5.10206
        0.188836
        3.76336
        5.75201
        0.872658
        4.01
        1.06441
        3.74777
        1.81806
        0.96203
        5.09875
        4.84064
        5.12467
        2.27644
        4.93389
        0.824169
        3.29636
        0.184981
        0.0937355
        2.88776
        1.94393
        2.39391
        5.86665
        1.13026
        0.147066
        4.59205
        4.7756
        5.63273
        1.45142
        4.78395
        2.87383
        0.270303
        4.97278
        0.354007
        6.02231
        5.84544
        4.364
        0.803537
        3.31002
        6.18206
    );
    waveNumber          nonuniform List<vector>
    200
    (
        (0.0153415 0 0)
        (0.0161269 0 0)
        (0.0169126 0 0)
        (0.0176976 0 0)
        (0.0184808 0 0)
        (0.0192612 0 0)
        (0.0200378 0 0)
        (0.0208094 0 0)
        (0.0215751 0 0)
        (0.0223338 0 0)
        (0.0230844 0 0)
        (0.0238259 0 0)
        (0.0245571 0 0)
        (0.0252771 0 0)
        (0.0259847 0 0)
        (0.0266788 0 0)
        (0.0273584 0 0)
        (0.0280225 0 0)
        (0.0286699 0 0)
        (0.0292997 0 0)
        (0.0299108 0 0)
        (0.0305022 0 0)
        (0.0310728 0 0)
        (0.0316218 0 0)
        (0.0321481 0 0)
        (0.0326509 0 0)
        (0.0331292 0 0)
        (0.0335821 0 0)
        (0.0340089 0 0)
        (0.0344088 0 0)
        (0.0347809 0 0)
        (0.0351247 0 0)
        (0.0354393 0 0)
        (0.0357243 0 0)
        (0.0359791 0 0)
        (0.0362031 0 0)
        (0.036396 0 0)
        (0.0365573 0 0)
        (0.0366867 0 0)
        (0.0367841 0 0)
        (0.0368572 0 0)
        (0.0368924 0 0)
        (0.0369033 0 0)
        (0.036925 0 0)
        (0.0369576 0 0)
        (0.0370011 0 0)
        (0.0370555 0 0)
        (0.0371208 0 0)
        (0.0371969 0 0)
        (0.037284 0 0)
        (0.0373819 0 0)
        (0.0374908 0 0)
        (0.0376107 0 0)
        (0.0377414 0 0)
        (0.0378832 0 0)
        (0.0380359 0 0)
        (0.0381996 0 0)
        (0.0383744 0 0)
        (0.0385602 0 0)
        (0.038757 0 0)
        (0.0389649 0 0)
        (0.039184 0 0)
        (0.0394142 0 0)
        (0.0396555 0 0)
        (0.0399081 0 0)
        (0.0401719 0 0)
        (0.0404469 0 0)
        (0.0407333 0 0)
        (0.041031 0 0)
        (0.0413401 0 0)
        (0.0416607 0 0)
        (0.0419927 0 0)
        (0.0423362 0 0)
        (0.0426913 0 0)
        (0.0430581 0 0)
        (0.0434365 0 0)
        (0.0438267 0 0)
        (0.0442287 0 0)
        (0.0446426 0 0)
        (0.0450684 0 0)
        (0.0455063 0 0)
        (0.0459562 0 0)
        (0.0464183 0 0)
        (0.0468927 0 0)
        (0.0473794 0 0)
        (0.0478786 0 0)
        (0.0483902 0 0)
        (0.0489145 0 0)
        (0.0494516 0 0)
        (0.0500014 0 0)
        (0.0505642 0 0)
        (0.0511401 0 0)
        (0.0517292 0 0)
        (0.0523316 0 0)
        (0.0529474 0 0)
        (0.0535768 0 0)
        (0.05422 0 0)
        (0.054877 0 0)
        (0.055548 0 0)
        (0.0562333 0 0)
        (0.0569328 0 0)
        (0.057647 0 0)
        (0.0583758 0 0)
        (0.0591195 0 0)
        (0.0598783 0 0)
        (0.0606524 0 0)
        (0.0614421 0 0)
        (0.0622474 0 0)
        (0.0630686 0 0)
        (0.0639061 0 0)
        (0.0647599 0 0)
        (0.0656304 0 0)
        (0.0665178 0 0)
        (0.0674224 0 0)
        (0.0683444 0 0)
        (0.0692842 0 0)
        (0.0702419 0 0)
        (0.071218 0 0)
        (0.0722128 0 0)
        (0.0732265 0 0)
        (0.0742594 0 0)
        (0.075312 0 0)
        (0.0763846 0 0)
        (0.0774775 0 0)
        (0.0785911 0 0)
        (0.0797257 0 0)
        (0.0808818 0 0)
        (0.0820598 0 0)
        (0.08326 0 0)
        (0.0844829 0 0)
        (0.0857289 0 0)
        (0.0869985 0 0)
        (0.088292 0 0)
        (0.08961 0 0)
        (0.0909529 0 0)
        (0.0923212 0 0)
        (0.0937153 0 0)
        (0.0951357 0 0)
        (0.0965829 0 0)
        (0.0980575 0 0)
        (0.0995598 0 0)
        (0.101091 0 0)
        (0.10265 0 0)
        (0.104239 0 0)
        (0.105858 0 0)
        (0.107507 0 0)
        (0.109187 0 0)
        (0.110898 0 0)
        (0.112641 0 0)
        (0.114417 0 0)
        (0.116226 0 0)
        (0.118067 0 0)
        (0.119943 0 0)
        (0.121853 0 0)
        (0.123798 0 0)
        (0.125778 0 0)
        (0.127794 0 0)
        (0.129846 0 0)
        (0.131935 0 0)
        (0.13406 0 0)
        (0.136222 0 0)
        (0.138422 0 0)
        (0.14066 0 0)
        (0.142936 0 0)
        (0.14525 0 0)
        (0.147602 0 0)
        (0.149994 0 0)
        (0.152424 0 0)
        (0.154893 0 0)
        (0.157402 0 0)
        (0.15995 0 0)
        (0.162536 0 0)
        (0.165163 0 0)
        (0.167828 0 0)
        (0.170532 0 0)
        (0.173276 0 0)
        (0.176058 0 0)
        (0.178879 0 0)
        (0.181739 0 0)
        (0.184637 0 0)
        (0.187573 0 0)
        (0.190547 0 0)
        (0.193558 0 0)
        (0.196607 0 0)
        (0.199693 0 0)
        (0.202815 0 0)
        (0.205973 0 0)
        (0.209168 0 0)
        (0.212397 0 0)
        (0.215662 0 0)
        (0.218961 0 0)
        (0.222294 0 0)
        (0.225661 0 0)
        (0.22906 0 0)
        (0.232493 0 0)
        (0.235957 0 0)
        (0.239454 0 0)
        (0.242981 0 0)
        (0.246539 0 0)
        (0.250127 0 0)
    );

    frequencyAxis
    {
        discretisation      cosineStretchedFrequencyAxis;
        lowerFrequencyCutoff 0.0277778;
        upperFrequencyCutoff 0.25;
        writeSpectrum       true;
    }

    relaxationZone
    {
        relaxationScheme    Spatial;
        relaxationShape     Rectangular;
        beachType           Empty;
        relaxType           INLET;
        startX              ( 0 0 -1 );
        endX                ( 400 0 1 );
        orientation         ( 1 0 0 );
        fieldNames          ( alpha.water U );
    }
}

initCoeffs
{
    waveType            potentialCurrent;
    U                   ( 0 0 0 );
    Tsoft               24;
}



// ************************************************************************* //
