/*--------------------------------*- C++ -*----------------------------------*\
| =========                 |                                                 |
| \\      /  F ield         | OpenFOAM: The Open Source CFD Toolbox           |
|  \\    /   O peration     | Version:  v1912                                 |
|   \\  /    A nd           | Website:  www.openfoam.com                      |
|    \\/     M anipulation  |                                                 |
\*---------------------------------------------------------------------------*/
FoamFile
{
    version	2.0;
    format	ascii;
    class	dictionary;
    object	waveProperties;
}
// * * * * * * * * * * * * * * * * * * * * * * * * * * * * * * * * * * * * * //

seaLevel            -0.66;

seaLevelAsReference true;

relaxationNames     ( inlet );

initializationName  init;

inletCoeffs
{
    waveType            irregular;
    spectrum            JONSWAP;
    N                   200;
    Tsoft               24;
    Hs                  5.97;
    Tp                  27.45;
    gamma               3.3;
    depth               14.1;
    direction           ( 1 0 0 );
    spectramValues  nonuniform List<scalar> 
201
(
19.2943
30.5275
43.814
62.8517
92.9597
132.168
166.323
184.046
189.056
189.055
189.046
189.007
188.9
188.676
188.271
187.607
186.598
185.149
183.161
180.539
177.197
173.066
168.104
162.302
155.691
148.346
140.385
131.963
123.262
114.479
105.809
97.4343
89.5067
82.1438
75.4238
69.3857
64.0339
59.3437
55.2688
51.7477
48.7103
46.0832
43.7942
41.7751
39.965
38.3116
36.7721
35.3133
33.911
32.549
31.2174
29.9109
28.6277
27.3682
26.1338
24.9265
23.7486
22.6019
21.4884
20.4096
19.3666
18.3605
17.3919
16.4611
15.5683
14.7133
13.896
13.1157
12.372
11.664
10.991
10.3519
9.74568
9.17132
8.62765
8.11351
7.62773
7.1691
6.73643
6.32853
5.94425
5.58242
5.24192
4.92166
4.62057
4.33763
4.07184
3.82225
3.58795
3.36806
3.16174
2.96822
2.78671
2.61651
2.45694
2.30734
2.16711
2.03567
1.91247
1.79701
1.68879
1.58736
1.4923
1.40319
1.31967
1.24138
1.16798
1.09916
1.03464
0.974123
0.917367
0.864128
0.814181
0.767314
0.723331
0.682047
0.64329
0.606898
0.572719
0.540614
0.51045
0.482104
0.45546
0.43041
0.406855
0.384699
0.363855
0.344241
0.325779
0.308397
0.292029
0.276611
0.262084
0.248394
0.235489
0.223321
0.211845
0.201018
0.190802
0.181159
0.172054
0.163456
0.155334
0.147659
0.140405
0.133548
0.127063
0.120928
0.115124
0.109631
0.104431
0.0995068
0.0948426
0.0904235
0.0862354
0.0822654
0.0785009
0.0749304
0.0715429
0.0683283
0.0652769
0.0623796
0.0596279
0.0570138
0.0545297
0.0521687
0.0499239
0.0477891
0.0457584
0.0438261
0.0419871
0.0402364
0.0385693
0.0369814
0.0354686
0.0340269
0.0326527
0.0313424
0.0300928
0.0289007
0.0277633
0.0266777
0.0256413
0.0246517
0.0237065
0.0228035
0.0219406
0.0211158
0.0203272
0.0195731
0.0188518
0.0181617
0.0175014
0.0168692
0.016264
0.0156844
0.0151293
0.0145974
0.0140877
0.0135991
0.0131307
)
;

    fspectrum       nonuniform List<scalar> 
201
(
0.0277778
0.0292802
0.030737
0.0321038
0.0333392
0.0344057
0.0352707
0.0359081
0.0364299
0.036437
0.0364585
0.0364942
0.0365442
0.0366085
0.0366871
0.03678
0.0368871
0.0370086
0.0371442
0.0372941
0.0374583
0.0376366
0.0378292
0.038036
0.038257
0.0384921
0.0387414
0.0390049
0.0392825
0.0395741
0.0398799
0.0401997
0.0405336
0.0408814
0.0412433
0.0416192
0.042009
0.0424127
0.0428303
0.0432618
0.0437071
0.0441662
0.0446391
0.0451258
0.0456261
0.0461402
0.0466679
0.0472091
0.047764
0.0483324
0.0489143
0.0495097
0.0501185
0.0507406
0.0513761
0.0520249
0.0526869
0.0533622
0.0540506
0.0547521
0.0554667
0.0561943
0.0569349
0.0576884
0.0584548
0.059234
0.0600259
0.0608306
0.061648
0.0624779
0.0633204
0.0641754
0.0650428
0.0659227
0.0668148
0.0677192
0.0686358
0.0695645
0.0705053
0.0714582
0.0724229
0.0733996
0.0743881
0.0753883
0.0764002
0.0774238
0.0784589
0.0795054
0.0805634
0.0816328
0.0827133
0.0838051
0.0849081
0.086022
0.087147
0.0882828
0.0894295
0.0905869
0.091755
0.0929336
0.0941228
0.0953225
0.0965324
0.0977527
0.0989831
0.100224
0.101474
0.102735
0.104005
0.105285
0.106575
0.107874
0.109183
0.110502
0.111829
0.113166
0.114513
0.115868
0.117232
0.118605
0.119987
0.121377
0.122776
0.124184
0.1256
0.127025
0.128457
0.129898
0.131347
0.132804
0.134268
0.13574
0.13722
0.138708
0.140203
0.141705
0.143215
0.144732
0.146255
0.147786
0.149324
0.150868
0.152419
0.153976
0.15554
0.157111
0.158687
0.16027
0.161858
0.163453
0.165053
0.166659
0.16827
0.169887
0.17151
0.173137
0.17477
0.176408
0.17805
0.179698
0.18135
0.183007
0.184668
0.186334
0.188004
0.189678
0.191356
0.193038
0.194724
0.196414
0.198107
0.199803
0.201503
0.203207
0.204913
0.206622
0.208335
0.21005
0.211767
0.213488
0.21521
0.216935
0.218663
0.220392
0.222124
0.223857
0.225592
0.227328
0.229066
0.230806
0.232547
0.234289
0.236032
0.237776
0.239521
0.241266
0.243012
0.244759
0.246506
0.248253
0.25
)
;

    amplitude           nonuniform List<scalar>
    200
    (
        0.273593
        0.329087
        0.381833
        0.438738
        0.489982
        0.508142
        0.472564
        0.441224
        0.0519855
        0.0900394
        0.11623
        0.137494
        0.155829
        0.172122
        0.186838
        0.200234
        0.212445
        0.223531
        0.2335
        0.242325
        0.249955
        0.25633
        0.261389
        0.265082
        0.267383
        0.268294
        0.267859
        0.266161
        0.263328
        0.259527
        0.254953
        0.249825
        0.244364
        0.238789
        0.233295
        0.22805
        0.223181
        0.218778
        0.214885
        0.211508
        0.208619
        0.206163
        0.204064
        0.202236
        0.200592
        0.199049
        0.197533
        0.195985
        0.194361
        0.192628
        0.19077
        0.188778
        0.18665
        0.184392
        0.182009
        0.179513
        0.176912
        0.174218
        0.171442
        0.168593
        0.165683
        0.162719
        0.159713
        0.156673
        0.153608
        0.150524
        0.147431
        0.144334
        0.14124
        0.138155
        0.135085
        0.132035
        0.129009
        0.126012
        0.123047
        0.120118
        0.117228
        0.114379
        0.111573
        0.108814
        0.106102
        0.103439
        0.100826
        0.0982649
        0.0957554
        0.0932983
        0.0908942
        0.0885431
        0.0862452
        0.0840005
        0.0818086
        0.0796693
        0.0775823
        0.0755469
        0.0735627
        0.0716289
        0.0697449
        0.0679099
        0.0661231
        0.0643837
        0.0626908
        0.0610435
        0.0594408
        0.0578819
        0.0563658
        0.0548915
        0.053458
        0.0520645
        0.0507099
        0.0493932
        0.0481136
        0.04687
        0.0456616
        0.0444874
        0.0433465
        0.042238
        0.0411609
        0.0401146
        0.039098
        0.0381103
        0.0371508
        0.0362186
        0.0353129
        0.0344331
        0.0335782
        0.0327476
        0.0319407
        0.0311566
        0.0303947
        0.0296544
        0.028935
        0.0282359
        0.0275564
        0.0268961
        0.0262543
        0.0256305
        0.0250241
        0.0244346
        0.0238615
        0.0233042
        0.0227625
        0.0222356
        0.0217233
        0.0212251
        0.0207405
        0.0202691
        0.0198106
        0.0193645
        0.0189305
        0.0185082
        0.0180972
        0.0176973
        0.0173081
        0.0169293
        0.0165605
        0.0162015
        0.015852
        0.0155117
        0.0151803
        0.0148575
        0.0145432
        0.014237
        0.0139387
        0.0136481
        0.013365
        0.0130891
        0.0128202
        0.0125582
        0.0123028
        0.0120538
        0.0118111
        0.0115745
        0.0113437
        0.0111187
        0.0108993
        0.0106852
        0.0104764
        0.0102728
        0.0100741
        0.00988016
        0.00969096
        0.00950631
        0.00932609
        0.00915018
        0.00897845
        0.00881079
        0.0086471
        0.00848725
        0.00833115
        0.00817869
        0.00802977
        0.0078843
        0.00774218
        0.00760333
        0.00746765
        0.00733506
        0.00720548
        0.00707883
        0.00695503
        0.006834
    );
    frequency           nonuniform List<scalar>
    200
    (
        0.028529
        0.0300086
        0.0314204
        0.0327215
        0.0338725
        0.0348382
        0.0355894
        0.036169
        0.0364334
        0.0364477
        0.0364763
        0.0365192
        0.0365764
        0.0366478
        0.0367336
        0.0368336
        0.0369478
        0.0370764
        0.0372192
        0.0373762
        0.0375475
        0.0377329
        0.0379326
        0.0381465
        0.0383746
        0.0386168
        0.0388732
        0.0391437
        0.0394283
        0.039727
        0.0400398
        0.0403666
        0.0407075
        0.0410624
        0.0414312
        0.0418141
        0.0422108
        0.0426215
        0.043046
        0.0434844
        0.0439367
        0.0444027
        0.0448824
        0.045376
        0.0458831
        0.046404
        0.0469385
        0.0474866
        0.0480482
        0.0486234
        0.049212
        0.0498141
        0.0504295
        0.0510584
        0.0517005
        0.0523559
        0.0530246
        0.0537064
        0.0544013
        0.0551094
        0.0558305
        0.0565646
        0.0573116
        0.0580716
        0.0588444
        0.05963
        0.0604283
        0.0612393
        0.0620629
        0.0628992
        0.0637479
        0.0646091
        0.0654828
        0.0663687
        0.067267
        0.0681775
        0.0691001
        0.0700349
        0.0709817
        0.0719405
        0.0729113
        0.0738938
        0.0748882
        0.0758943
        0.076912
        0.0779413
        0.0789822
        0.0800344
        0.0810981
        0.0821731
        0.0832592
        0.0843566
        0.085465
        0.0865845
        0.0877149
        0.0888561
        0.0900082
        0.0911709
        0.0923443
        0.0935282
        0.0947226
        0.0959274
        0.0971426
        0.0983679
        0.0996034
        0.100849
        0.102104
        0.10337
        0.104645
        0.10593
        0.107225
        0.108529
        0.109843
        0.111166
        0.112498
        0.113839
        0.11519
        0.11655
        0.117918
        0.119296
        0.120682
        0.122077
        0.12348
        0.124892
        0.126312
        0.127741
        0.129178
        0.130622
        0.132075
        0.133536
        0.135004
        0.13648
        0.137964
        0.139456
        0.140954
        0.14246
        0.143973
        0.145494
        0.147021
        0.148555
        0.150096
        0.151644
        0.153198
        0.154758
        0.156325
        0.157899
        0.159478
        0.161064
        0.162655
        0.164253
        0.165856
        0.167464
        0.169079
        0.170698
        0.172323
        0.173954
        0.175589
        0.177229
        0.178874
        0.180524
        0.182179
        0.183838
        0.185501
        0.187169
        0.188841
        0.190517
        0.192197
        0.193881
        0.195569
        0.19726
        0.198955
        0.200653
        0.202355
        0.20406
        0.205768
        0.207478
        0.209192
        0.210908
        0.212627
        0.214349
        0.216073
        0.217799
        0.219527
        0.221258
        0.22299
        0.224724
        0.22646
        0.228197
        0.229936
        0.231676
        0.233418
        0.23516
        0.236904
        0.238648
        0.240393
        0.242139
        0.243885
        0.245632
        0.247379
        0.249126
    );
    phaselag            nonuniform List<scalar>
    200
    (
        1.12089
        2.51125
        1.04677
        1.3328
        0.389154
        0.340234
        1.73206
        0.300068
        2.01711
        1.71364
        2.31056
        1.39717
        1.38015
        1.26755
        0.277187
        2.16091
        4.06933
        0.939111
        0.186408
        5.51974
        4.11812
        3.31528
        3.17839
        5.75346
        1.18177
        0.748679
        0.365033
        4.52345
        4.00575
        5.53452
        2.58905
        5.12664
        1.76258
        3.63582
        0.176257
        2.15173
        3.97605
        1.90831
        2.4518
        5.99316
        3.62195
        4.76236
        1.10715
        5.0021
        6.02991
        1.38434
        0.879825
        3.81606
        2.32345
        1.06623
        3.05261
        0.158378
        4.38152
        6.231
        5.91184
        5.56329
        0.696498
        6.27687
        3.80355
        4.70225
        5.52821
        0.109411
        3.5457
        1.0076
        3.74523
        3.72196
        3.15933
        1.4381
        5.63028
        5.61114
        1.14807
        2.96904
        4.09031
        2.25522
        1.68795
        3.83704
        3.63956
        2.56778
        1.36991
        5.963
        3.63401
        4.42252
        6.12138
        1.73234
        4.37034
        5.75004
        1.01244
        5.06684
        5.74372
        4.81599
        3.4859
        4.98874
        4.92541
        0.748423
        5.99634
        2.38745
        4.47038
        2.87249
        3.82554
        3.81748
        2.20044
        4.97362
        0.503333
        0.00756762
        0.945652
        2.19129
        3.84461
        4.58521
        4.75906
        5.21452
        4.26503
        2.10989
        3.35386
        4.10322
        3.84223
        1.44102
        3.57007
        4.85467
        0.224672
        3.03061
        3.38748
        3.71058
        1.73617
        2.0297
        4.459
        1.44932
        4.41715
        2.6462
        4.32181
        1.95951
        0.180489
        0.23907
        0.649941
        0.683822
        0.246637
        1.59559
        2.87511
        4.09125
        6.1808
        1.35099
        3.02258
        4.16264
        3.46087
        0.0932557
        1.98268
        1.01992
        1.53427
        5.55275
        5.87459
        1.75895
        2.30018
        2.97889
        5.46952
        4.03634
        5.00859
        3.64533
        5.48566
        3.14256
        0.0083477
        3.52429
        5.10206
        0.188836
        3.76336
        5.75201
        0.872658
        4.01
        1.06441
        3.74777
        1.81806
        0.96203
        5.09875
        4.84064
        5.12467
        2.27644
        4.93389
        0.824169
        3.29636
        0.184981
        0.0937355
        2.88776
        1.94393
        2.39391
        5.86665
        1.13026
        0.147066
        4.59205
        4.7756
        5.63273
        1.45142
        4.78395
        2.87383
        0.270303
        4.97278
        0.354007
        6.02231
        5.84544
        4.364
        0.803537
        3.31002
        6.18206
    );
    waveNumber          nonuniform List<vector>
    200
    (
        (0.0153596 0 0)
        (0.0161696 0 0)
        (0.0169444 0 0)
        (0.0176601 0 0)
        (0.0182947 0 0)
        (0.0188283 0 0)
        (0.019244 0 0)
        (0.0195652 0 0)
        (0.0197119 0 0)
        (0.0197199 0 0)
        (0.0197357 0 0)
        (0.0197595 0 0)
        (0.0197912 0 0)
        (0.0198309 0 0)
        (0.0198785 0 0)
        (0.019934 0 0)
        (0.0199975 0 0)
        (0.0200689 0 0)
        (0.0201482 0 0)
        (0.0202355 0 0)
        (0.0203307 0 0)
        (0.0204339 0 0)
        (0.020545 0 0)
        (0.0206641 0 0)
        (0.0207911 0 0)
        (0.0209261 0 0)
        (0.0210691 0 0)
        (0.02122 0 0)
        (0.0213789 0 0)
        (0.0215458 0 0)
        (0.0217206 0 0)
        (0.0219035 0 0)
        (0.0220943 0 0)
        (0.0222931 0 0)
        (0.0225 0 0)
        (0.0227149 0 0)
        (0.0229378 0 0)
        (0.0231687 0 0)
        (0.0234077 0 0)
        (0.0236548 0 0)
        (0.0239099 0 0)
        (0.0241731 0 0)
        (0.0244445 0 0)
        (0.0247239 0 0)
        (0.0250114 0 0)
        (0.0253072 0 0)
        (0.025611 0 0)
        (0.0259231 0 0)
        (0.0262433 0 0)
        (0.0265718 0 0)
        (0.0269085 0 0)
        (0.0272535 0 0)
        (0.0276068 0 0)
        (0.0279684 0 0)
        (0.0283384 0 0)
        (0.0287167 0 0)
        (0.0291034 0 0)
        (0.0294986 0 0)
        (0.0299023 0 0)
        (0.0303144 0 0)
        (0.0307351 0 0)
        (0.0311644 0 0)
        (0.0316024 0 0)
        (0.032049 0 0)
        (0.0325043 0 0)
        (0.0329684 0 0)
        (0.0334413 0 0)
        (0.0339231 0 0)
        (0.0344138 0 0)
        (0.0349135 0 0)
        (0.0354222 0 0)
        (0.03594 0 0)
        (0.036467 0 0)
        (0.0370033 0 0)
        (0.0375488 0 0)
        (0.0381038 0 0)
        (0.0386682 0 0)
        (0.0392421 0 0)
        (0.0398257 0 0)
        (0.040419 0 0)
        (0.0410221 0 0)
        (0.0416351 0 0)
        (0.0422581 0 0)
        (0.0428912 0 0)
        (0.0435345 0 0)
        (0.0441881 0 0)
        (0.0448521 0 0)
        (0.0455268 0 0)
        (0.046212 0 0)
        (0.0469081 0 0)
        (0.0476151 0 0)
        (0.0483332 0 0)
        (0.0490625 0 0)
        (0.0498032 0 0)
        (0.0505554 0 0)
        (0.0513192 0 0)
        (0.0520949 0 0)
        (0.0528826 0 0)
        (0.0536825 0 0)
        (0.0544947 0 0)
        (0.0553195 0 0)
        (0.056157 0 0)
        (0.0570075 0 0)
        (0.0578711 0 0)
        (0.058748 0 0)
        (0.0596386 0 0)
        (0.0605429 0 0)
        (0.0614613 0 0)
        (0.0623939 0 0)
        (0.0633411 0 0)
        (0.064303 0 0)
        (0.06528 0 0)
        (0.0662723 0 0)
        (0.0672801 0 0)
        (0.0683039 0 0)
        (0.0693438 0 0)
        (0.0704001 0 0)
        (0.0714733 0 0)
        (0.0725635 0 0)
        (0.0736711 0 0)
        (0.0747965 0 0)
        (0.07594 0 0)
        (0.0771019 0 0)
        (0.0782826 0 0)
        (0.0794825 0 0)
        (0.0807019 0 0)
        (0.0819412 0 0)
        (0.0832009 0 0)
        (0.0844812 0 0)
        (0.0857827 0 0)
        (0.0871057 0 0)
        (0.0884506 0 0)
        (0.0898178 0 0)
        (0.0912079 0 0)
        (0.0926212 0 0)
        (0.0940582 0 0)
        (0.0955192 0 0)
        (0.0970048 0 0)
        (0.0985155 0 0)
        (0.100052 0 0)
        (0.101614 0 0)
        (0.103202 0 0)
        (0.104817 0 0)
        (0.10646 0 0)
        (0.10813 0 0)
        (0.109829 0 0)
        (0.111556 0 0)
        (0.113312 0 0)
        (0.115098 0 0)
        (0.116913 0 0)
        (0.118759 0 0)
        (0.120636 0 0)
        (0.122544 0 0)
        (0.124484 0 0)
        (0.126456 0 0)
        (0.12846 0 0)
        (0.130496 0 0)
        (0.132566 0 0)
        (0.134668 0 0)
        (0.136805 0 0)
        (0.138975 0 0)
        (0.141179 0 0)
        (0.143418 0 0)
        (0.145691 0 0)
        (0.147999 0 0)
        (0.150341 0 0)
        (0.152719 0 0)
        (0.155131 0 0)
        (0.157579 0 0)
        (0.160062 0 0)
        (0.16258 0 0)
        (0.165133 0 0)
        (0.167721 0 0)
        (0.170344 0 0)
        (0.173002 0 0)
        (0.175696 0 0)
        (0.178423 0 0)
        (0.181186 0 0)
        (0.183983 0 0)
        (0.186814 0 0)
        (0.189679 0 0)
        (0.192578 0 0)
        (0.195511 0 0)
        (0.198477 0 0)
        (0.201475 0 0)
        (0.204507 0 0)
        (0.207571 0 0)
        (0.210667 0 0)
        (0.213795 0 0)
        (0.216954 0 0)
        (0.220144 0 0)
        (0.223365 0 0)
        (0.226617 0 0)
        (0.229898 0 0)
        (0.233209 0 0)
        (0.236549 0 0)
        (0.239918 0 0)
        (0.243316 0 0)
        (0.246742 0 0)
        (0.250195 0 0)
    );

    frequencyAxis
    {
        discretisation      cosineStretchedFrequencyAxis;
        lowerFrequencyCutoff 0.0277778;
        upperFrequencyCutoff 0.25;
        writeSpectrum       true;
    }

    relaxationZone
    {
        relaxationScheme    Spatial;
        relaxationShape     Rectangular;
        beachType           Empty;
        relaxType           INLET;
        startX              ( 0 0 -1 );
        endX                ( 400 0 1 );
        orientation         ( 1 0 0 );
        fieldNames          ( alpha.water U );
    }
}

initCoeffs
{
    waveType            potentialCurrent;
    U                   ( 0 0 0 );
    Tsoft               24;
}



// ************************************************************************* //
