/*--------------------------------*- C++ -*----------------------------------*\
| =========                 |                                                 |
| \\      /  F ield         | OpenFOAM: The Open Source CFD Toolbox           |
|  \\    /   O peration     | Version:  v1912                                 |
|   \\  /    A nd           | Website:  www.openfoam.com                      |
|    \\/     M anipulation  |                                                 |
\*---------------------------------------------------------------------------*/
FoamFile
{
    version	2.0;
    format	ascii;
    class	dictionary;
    object	waveProperties;
}
// * * * * * * * * * * * * * * * * * * * * * * * * * * * * * * * * * * * * * //

seaLevel            1.96;

seaLevelAsReference true;

relaxationNames     ( inlet );

initializationName  init;

inletCoeffs
{
    waveType            irregular;
    spectrum            JONSWAP;
    N                   200;
    Tsoft               24;
    Hs                  5.97;
    Tp                  24.58;
    gamma               3.3;
    depth               14.1;
    direction           ( 1 0 0 );
    spectramValues  nonuniform List<scalar> 
201
(
3.83443
9.01029
16.4281
25.1432
34.8047
46.8306
64.1111
88.5752
117.567
143.556
160.21
167.408
169.289
169.289
169.282
169.252
169.173
169.005
168.7
168.201
167.442
166.349
164.846
162.857
160.31
157.144
153.314
148.795
143.593
137.743
131.315
124.407
117.147
109.679
102.159
94.7397
87.5618
80.7459
74.3857
68.5458
63.2611
58.5398
54.3676
50.7123
47.5289
44.7646
42.3625
40.2653
38.4177
36.7688
35.2735
33.8937
32.5982
31.3631
30.1711
29.0105
27.8741
26.7581
25.6613
24.5839
23.5269
22.492
21.4808
20.4949
19.5358
18.6047
17.7026
16.8304
15.9886
15.1776
14.3975
13.6485
12.9303
12.2426
11.5851
10.9572
10.3583
9.7878
9.24484
8.72864
8.23834
7.77308
7.33193
6.91398
6.5183
6.14395
5.79001
5.45557
5.13972
4.84159
4.5603
4.29503
4.04496
3.8093
3.5873
3.37822
3.18137
2.99608
2.8217
2.65762
2.50326
2.35806
2.2215
2.09307
1.9723
1.85874
1.75196
1.65156
1.55716
1.46839
1.38493
1.30645
1.23264
1.16324
1.09796
1.03656
0.978806
0.924469
0.873345
0.825236
0.779958
0.73734
0.697218
0.65944
0.623864
0.590356
0.558789
0.529046
0.501016
0.474596
0.449687
0.426199
0.404046
0.383148
0.36343
0.34482
0.327252
0.310666
0.295001
0.280204
0.266223
0.25301
0.24052
0.228711
0.217542
0.206977
0.19698
0.187519
0.178563
0.170082
0.162049
0.15444
0.147229
0.140394
0.133914
0.127769
0.12194
0.11641
0.111161
0.106179
0.101448
0.096955
0.0926867
0.0886308
0.0847758
0.0811109
0.0776257
0.0743106
0.0711566
0.068155
0.0652978
0.0625773
0.0599864
0.0575183
0.0551666
0.0529252
0.0507884
0.0487509
0.0468075
0.0449535
0.0431843
0.0414956
0.0398834
0.0383439
0.0368733
0.0354684
0.0341257
0.0328424
0.0316154
0.030442
0.0293196
0.0282458
0.0272182
0.0262345
0.0252927
0.0243908
0.023527
0.0226993
0.0219062
0.0211459
0.0204171
)
;

    fspectrum       nonuniform List<scalar> 
201
(
0.0277778
0.0293334
0.0308663
0.0323542
0.0337754
0.0351091
0.0363359
0.0374378
0.038399
0.0392052
0.0398448
0.0403085
0.0406835
0.0406908
0.0407127
0.0407492
0.0408004
0.0408661
0.0409465
0.0410414
0.0411509
0.041275
0.0414137
0.0415669
0.0417347
0.041917
0.0421139
0.0423252
0.0425511
0.0427915
0.0430463
0.0433155
0.0435992
0.0438973
0.0442098
0.0445366
0.0448778
0.0452333
0.0456031
0.0459872
0.0463855
0.0467981
0.0472248
0.0476657
0.0481207
0.0485898
0.0490729
0.0495701
0.0500813
0.0506064
0.0511454
0.0516984
0.0522652
0.0528457
0.0534401
0.0540481
0.0546699
0.0553053
0.0559542
0.0566168
0.0572928
0.0579822
0.0586851
0.0594014
0.0601309
0.0608737
0.0616297
0.0623988
0.0631811
0.0639763
0.0647846
0.0656058
0.0664399
0.0672868
0.0681464
0.0690188
0.0699037
0.0708013
0.0717113
0.0726338
0.0735687
0.0745159
0.0754754
0.076447
0.0774308
0.0784266
0.0794343
0.080454
0.0814855
0.0825288
0.0835838
0.0846504
0.0857285
0.0868181
0.0879191
0.0890314
0.090155
0.0912897
0.0924355
0.0935923
0.09476
0.0959385
0.0971278
0.0983278
0.0995383
0.100759
0.101991
0.103233
0.104485
0.105747
0.107019
0.108302
0.109594
0.110896
0.112207
0.113529
0.114859
0.1162
0.117549
0.118908
0.120276
0.121653
0.123039
0.124434
0.125838
0.12725
0.128671
0.1301
0.131538
0.132984
0.134438
0.1359
0.13737
0.138849
0.140334
0.141828
0.143329
0.144837
0.146353
0.147876
0.149406
0.150943
0.152488
0.154039
0.155596
0.15716
0.158731
0.160308
0.161891
0.163481
0.165076
0.166678
0.168285
0.169898
0.171517
0.173141
0.17477
0.176405
0.178044
0.179689
0.181339
0.182993
0.184653
0.186316
0.187985
0.189657
0.191334
0.193015
0.1947
0.196388
0.198081
0.199777
0.201476
0.203179
0.204885
0.206595
0.208307
0.210022
0.21174
0.213461
0.215185
0.21691
0.218638
0.220369
0.222101
0.223835
0.225571
0.227309
0.229048
0.230789
0.232531
0.234275
0.236019
0.237765
0.239511
0.241258
0.243006
0.244754
0.246502
0.248251
0.25
)
;

    amplitude           nonuniform List<scalar>
    200
    (
        0.141355
        0.197472
        0.248703
        0.291882
        0.329964
        0.36892
        0.410194
        0.445116
        0.458834
        0.440784
        0.389741
        0.35534
        0.0497367
        0.0861446
        0.111204
        0.131552
        0.149104
        0.164716
        0.17884
        0.19173
        0.203529
        0.214308
        0.224088
        0.232858
        0.240583
        0.247213
        0.252695
        0.256981
        0.260034
        0.261837
        0.262402
        0.261774
        0.26003
        0.257286
        0.253685
        0.249399
        0.244613
        0.239518
        0.2343
        0.229131
        0.224158
        0.219499
        0.215237
        0.211423
        0.208073
        0.205173
        0.202684
        0.200551
        0.198702
        0.197064
        0.195563
        0.194129
        0.192703
        0.191239
        0.1897
        0.188063
        0.186312
        0.184442
        0.182451
        0.180343
        0.178126
        0.175805
        0.173391
        0.170891
        0.168316
        0.165675
        0.162975
        0.160226
        0.157436
        0.154611
        0.151761
        0.148891
        0.146009
        0.14312
        0.14023
        0.137345
        0.13447
        0.131608
        0.128766
        0.125945
        0.12315
        0.120385
        0.117651
        0.114952
        0.11229
        0.109667
        0.107084
        0.104543
        0.102046
        0.0995929
        0.0971855
        0.0948242
        0.0925096
        0.090242
        0.0880217
        0.0858488
        0.0837233
        0.0816451
        0.079614
        0.0776297
        0.0756919
        0.0738001
        0.0719538
        0.0701524
        0.0683954
        0.0666821
        0.0650118
        0.0633837
        0.0617972
        0.0602515
        0.0587458
        0.0572793
        0.0558511
        0.0544606
        0.0531068
        0.0517889
        0.0505062
        0.0492577
        0.0480427
        0.0468604
        0.0457099
        0.0445905
        0.0435013
        0.0424417
        0.0414108
        0.0404078
        0.0394321
        0.0384829
        0.0375596
        0.0366613
        0.0357874
        0.0349373
        0.0341103
        0.0333057
        0.032523
        0.0317615
        0.0310206
        0.0302997
        0.0295983
        0.0289158
        0.0282517
        0.0276055
        0.0269766
        0.0263646
        0.0257689
        0.0251891
        0.0246247
        0.0240754
        0.0235406
        0.02302
        0.0225131
        0.0220195
        0.0215389
        0.0210709
        0.0206151
        0.0201711
        0.0197387
        0.0193175
        0.0189072
        0.0185074
        0.0181179
        0.0177384
        0.0173686
        0.0170081
        0.0166568
        0.0163144
        0.0159806
        0.0156552
        0.0153379
        0.0150286
        0.0147269
        0.0144327
        0.0141458
        0.0138659
        0.0135929
        0.0133266
        0.0130667
        0.0128132
        0.0125658
        0.0123243
        0.0120886
        0.0118586
        0.0116341
        0.0114149
        0.0112008
        0.0109919
        0.0107878
        0.0105885
        0.0103938
        0.0102037
        0.0100179
        0.00983647
        0.00965918
        0.00948593
        0.00931664
        0.00915118
        0.00898946
        0.00883138
        0.00867685
        0.00852577
    );
    frequency           nonuniform List<scalar>
    200
    (
        0.0285556
        0.0300999
        0.0316103
        0.0330648
        0.0344422
        0.0357225
        0.0368868
        0.0379184
        0.0388021
        0.039525
        0.0400766
        0.040496
        0.0406871
        0.0407017
        0.040731
        0.0407748
        0.0408332
        0.0409063
        0.0409939
        0.0410962
        0.041213
        0.0413444
        0.0414903
        0.0416508
        0.0418259
        0.0420155
        0.0422196
        0.0424382
        0.0426713
        0.0429189
        0.0431809
        0.0434574
        0.0437483
        0.0440535
        0.0443732
        0.0447072
        0.0450556
        0.0454182
        0.0457952
        0.0461864
        0.0465918
        0.0470114
        0.0474452
        0.0478932
        0.0483552
        0.0488313
        0.0493215
        0.0498257
        0.0503438
        0.0508759
        0.0514219
        0.0519818
        0.0525554
        0.0531429
        0.0537441
        0.054359
        0.0549876
        0.0556297
        0.0562855
        0.0569548
        0.0576375
        0.0583337
        0.0590432
        0.0597661
        0.0605023
        0.0612517
        0.0620143
        0.0627899
        0.0635787
        0.0643805
        0.0651952
        0.0660229
        0.0668633
        0.0677166
        0.0685826
        0.0694613
        0.0703525
        0.0712563
        0.0721726
        0.0731013
        0.0740423
        0.0749957
        0.0759612
        0.0769389
        0.0779287
        0.0789304
        0.0799442
        0.0809698
        0.0820072
        0.0830563
        0.0841171
        0.0851895
        0.0862733
        0.0873686
        0.0884753
        0.0895932
        0.0907223
        0.0918626
        0.0930139
        0.0941761
        0.0953492
        0.0965332
        0.0977278
        0.0989331
        0.100149
        0.101375
        0.102612
        0.103859
        0.105116
        0.106383
        0.10766
        0.108948
        0.110245
        0.111551
        0.112868
        0.114194
        0.11553
        0.116874
        0.118229
        0.119592
        0.120965
        0.122346
        0.123737
        0.125136
        0.126544
        0.12796
        0.129386
        0.130819
        0.132261
        0.133711
        0.135169
        0.136635
        0.13811
        0.139591
        0.141081
        0.142578
        0.144083
        0.145595
        0.147115
        0.148641
        0.150175
        0.151716
        0.153263
        0.154817
        0.156378
        0.157946
        0.15952
        0.1611
        0.162686
        0.164279
        0.165877
        0.167481
        0.169092
        0.170707
        0.172329
        0.173955
        0.175587
        0.177225
        0.178867
        0.180514
        0.182166
        0.183823
        0.185485
        0.187151
        0.188821
        0.190496
        0.192174
        0.193857
        0.195544
        0.197234
        0.198929
        0.200626
        0.202328
        0.204032
        0.20574
        0.207451
        0.209165
        0.210881
        0.212601
        0.214323
        0.216047
        0.217774
        0.219503
        0.221235
        0.222968
        0.224703
        0.22644
        0.228179
        0.229919
        0.23166
        0.233403
        0.235147
        0.236892
        0.238638
        0.240385
        0.242132
        0.24388
        0.245628
        0.247377
        0.249126
    );
    phaselag            nonuniform List<scalar>
    200
    (
        1.12089
        2.51125
        1.04677
        1.3328
        0.389154
        0.340234
        1.73206
        0.300068
        2.01711
        1.71364
        2.31056
        1.39717
        1.38015
        1.26755
        0.277187
        2.16091
        4.06933
        0.939111
        0.186408
        5.51974
        4.11812
        3.31528
        3.17839
        5.75346
        1.18177
        0.748679
        0.365033
        4.52345
        4.00575
        5.53452
        2.58905
        5.12664
        1.76258
        3.63582
        0.176257
        2.15173
        3.97605
        1.90831
        2.4518
        5.99316
        3.62195
        4.76236
        1.10715
        5.0021
        6.02991
        1.38434
        0.879825
        3.81606
        2.32345
        1.06623
        3.05261
        0.158378
        4.38152
        6.231
        5.91184
        5.56329
        0.696498
        6.27687
        3.80355
        4.70225
        5.52821
        0.109411
        3.5457
        1.0076
        3.74523
        3.72196
        3.15933
        1.4381
        5.63028
        5.61114
        1.14807
        2.96904
        4.09031
        2.25522
        1.68795
        3.83704
        3.63956
        2.56778
        1.36991
        5.963
        3.63401
        4.42252
        6.12138
        1.73234
        4.37034
        5.75004
        1.01244
        5.06684
        5.74372
        4.81599
        3.4859
        4.98874
        4.92541
        0.748423
        5.99634
        2.38745
        4.47038
        2.87249
        3.82554
        3.81748
        2.20044
        4.97362
        0.503333
        0.00756762
        0.945652
        2.19129
        3.84461
        4.58521
        4.75906
        5.21452
        4.26503
        2.10989
        3.35386
        4.10322
        3.84223
        1.44102
        3.57007
        4.85467
        0.224672
        3.03061
        3.38748
        3.71058
        1.73617
        2.0297
        4.459
        1.44932
        4.41715
        2.6462
        4.32181
        1.95951
        0.180489
        0.23907
        0.649941
        0.683822
        0.246637
        1.59559
        2.87511
        4.09125
        6.1808
        1.35099
        3.02258
        4.16264
        3.46087
        0.0932557
        1.98268
        1.01992
        1.53427
        5.55275
        5.87459
        1.75895
        2.30018
        2.97889
        5.46952
        4.03634
        5.00859
        3.64533
        5.48566
        3.14256
        0.0083477
        3.52429
        5.10206
        0.188836
        3.76336
        5.75201
        0.872658
        4.01
        1.06441
        3.74777
        1.81806
        0.96203
        5.09875
        4.84064
        5.12467
        2.27644
        4.93389
        0.824169
        3.29636
        0.184981
        0.0937355
        2.88776
        1.94393
        2.39391
        5.86665
        1.13026
        0.147066
        4.59205
        4.7756
        5.63273
        1.45142
        4.78395
        2.87383
        0.270303
        4.97278
        0.354007
        6.02231
        5.84544
        4.364
        0.803537
        3.31002
        6.18206
    );
    waveNumber          nonuniform List<vector>
    200
    (
        (0.0153742 0 0)
        (0.0162196 0 0)
        (0.0170487 0 0)
        (0.0178492 0 0)
        (0.0186094 0 0)
        (0.0193177 0 0)
        (0.0199636 0 0)
        (0.0205371 0 0)
        (0.0210294 0 0)
        (0.0214329 0 0)
        (0.0217412 0 0)
        (0.0219759 0 0)
        (0.0220829 0 0)
        (0.0220911 0 0)
        (0.0221074 0 0)
        (0.022132 0 0)
        (0.0221647 0 0)
        (0.0222057 0 0)
        (0.0222548 0 0)
        (0.0223121 0 0)
        (0.0223776 0 0)
        (0.0224513 0 0)
        (0.0225331 0 0)
        (0.0226232 0 0)
        (0.0227215 0 0)
        (0.022828 0 0)
        (0.0229427 0 0)
        (0.0230656 0 0)
        (0.0231968 0 0)
        (0.0233361 0 0)
        (0.0234837 0 0)
        (0.0236395 0 0)
        (0.0238036 0 0)
        (0.0239759 0 0)
        (0.0241565 0 0)
        (0.0243453 0 0)
        (0.0245424 0 0)
        (0.0247479 0 0)
        (0.0249615 0 0)
        (0.0251836 0 0)
        (0.0254139 0 0)
        (0.0256525 0 0)
        (0.0258995 0 0)
        (0.0261549 0 0)
        (0.0264186 0 0)
        (0.0266907 0 0)
        (0.0269712 0 0)
        (0.0272602 0 0)
        (0.0275576 0 0)
        (0.0278634 0 0)
        (0.0281778 0 0)
        (0.0285006 0 0)
        (0.028832 0 0)
        (0.029172 0 0)
        (0.0295205 0 0)
        (0.0298777 0 0)
        (0.0302434 0 0)
        (0.0306179 0 0)
        (0.0310011 0 0)
        (0.031393 0 0)
        (0.0317937 0 0)
        (0.0322033 0 0)
        (0.0326217 0 0)
        (0.033049 0 0)
        (0.0334852 0 0)
        (0.0339304 0 0)
        (0.0343847 0 0)
        (0.0348481 0 0)
        (0.0353206 0 0)
        (0.0358024 0 0)
        (0.0362934 0 0)
        (0.0367937 0 0)
        (0.0373034 0 0)
        (0.0378226 0 0)
        (0.0383513 0 0)
        (0.0388896 0 0)
        (0.0394376 0 0)
        (0.0399953 0 0)
        (0.0405629 0 0)
        (0.0411404 0 0)
        (0.0417279 0 0)
        (0.0423256 0 0)
        (0.0429334 0 0)
        (0.0435515 0 0)
        (0.04418 0 0)
        (0.0448191 0 0)
        (0.0454688 0 0)
        (0.0461292 0 0)
        (0.0468005 0 0)
        (0.0474828 0 0)
        (0.0481762 0 0)
        (0.0488808 0 0)
        (0.0495969 0 0)
        (0.0503245 0 0)
        (0.0510638 0 0)
        (0.051815 0 0)
        (0.0525782 0 0)
        (0.0533535 0 0)
        (0.0541412 0 0)
        (0.0549414 0 0)
        (0.0557544 0 0)
        (0.0565802 0 0)
        (0.0574192 0 0)
        (0.0582715 0 0)
        (0.0591372 0 0)
        (0.0600168 0 0)
        (0.0609102 0 0)
        (0.0618179 0 0)
        (0.06274 0 0)
        (0.0636767 0 0)
        (0.0646284 0 0)
        (0.0655953 0 0)
        (0.0665776 0 0)
        (0.0675757 0 0)
        (0.0685898 0 0)
        (0.0696201 0 0)
        (0.0706671 0 0)
        (0.071731 0 0)
        (0.0728121 0 0)
        (0.0739107 0 0)
        (0.0750273 0 0)
        (0.0761621 0 0)
        (0.0773154 0 0)
        (0.0784877 0 0)
        (0.0796792 0 0)
        (0.0808904 0 0)
        (0.0821217 0 0)
        (0.0833734 0 0)
        (0.0846459 0 0)
        (0.0859397 0 0)
        (0.0872551 0 0)
        (0.0885926 0 0)
        (0.0899525 0 0)
        (0.0913354 0 0)
        (0.0927416 0 0)
        (0.0941716 0 0)
        (0.0956259 0 0)
        (0.0971048 0 0)
        (0.0986089 0 0)
        (0.100139 0 0)
        (0.101694 0 0)
        (0.103276 0 0)
        (0.104886 0 0)
        (0.106522 0 0)
        (0.108187 0 0)
        (0.10988 0 0)
        (0.111601 0 0)
        (0.113352 0 0)
        (0.115132 0 0)
        (0.116943 0 0)
        (0.118784 0 0)
        (0.120656 0 0)
        (0.12256 0 0)
        (0.124495 0 0)
        (0.126462 0 0)
        (0.128462 0 0)
        (0.130494 0 0)
        (0.13256 0 0)
        (0.134659 0 0)
        (0.136792 0 0)
        (0.138959 0 0)
        (0.14116 0 0)
        (0.143395 0 0)
        (0.145666 0 0)
        (0.147971 0 0)
        (0.150311 0 0)
        (0.152686 0 0)
        (0.155097 0 0)
        (0.157543 0 0)
        (0.160024 0 0)
        (0.16254 0 0)
        (0.165092 0 0)
        (0.167679 0 0)
        (0.170302 0 0)
        (0.172959 0 0)
        (0.175652 0 0)
        (0.17838 0 0)
        (0.181142 0 0)
        (0.183939 0 0)
        (0.186771 0 0)
        (0.189637 0 0)
        (0.192536 0 0)
        (0.19547 0 0)
        (0.198437 0 0)
        (0.201437 0 0)
        (0.20447 0 0)
        (0.207536 0 0)
        (0.210633 0 0)
        (0.213763 0 0)
        (0.216924 0 0)
        (0.220117 0 0)
        (0.22334 0 0)
        (0.226594 0 0)
        (0.229878 0 0)
        (0.233192 0 0)
        (0.236535 0 0)
        (0.239907 0 0)
        (0.243308 0 0)
        (0.246737 0 0)
        (0.250194 0 0)
    );

    frequencyAxis
    {
        discretisation      cosineStretchedFrequencyAxis;
        lowerFrequencyCutoff 0.0277778;
        upperFrequencyCutoff 0.25;
        writeSpectrum       true;
    }

    relaxationZone
    {
        relaxationScheme    Spatial;
        relaxationShape     Rectangular;
        beachType           Empty;
        relaxType           INLET;
        startX              ( 0 0 -1 );
        endX                ( 400 0 1 );
        orientation         ( 1 0 0 );
        fieldNames          ( alpha.water U );
    }
}

initCoeffs
{
    waveType            potentialCurrent;
    U                   ( 0 0 0 );
    Tsoft               24;
}



// ************************************************************************* //
