/*--------------------------------*- C++ -*----------------------------------*\
| =========                 |                                                 |
| \\      /  F ield         | OpenFOAM: The Open Source CFD Toolbox           |
|  \\    /   O peration     | Version:  v1912                                 |
|   \\  /    A nd           | Website:  www.openfoam.com                      |
|    \\/     M anipulation  |                                                 |
\*---------------------------------------------------------------------------*/
FoamFile
{
    version	2.0;
    format	ascii;
    class	dictionary;
    object	waveProperties;
}
// * * * * * * * * * * * * * * * * * * * * * * * * * * * * * * * * * * * * * //

seaLevel            1.82;

seaLevelAsReference true;

relaxationNames     ( inlet );

initializationName  init;

inletCoeffs
{
    waveType            irregular;
    spectrum            JONSWAP;
    N                   200;
    Tsoft               24;
    Hs                  2.64;
    Tp                  9.92;
    gamma               3.3;
    depth               14.1;
    direction           ( 1 0 0 );
    spectramValues  nonuniform List<scalar> 
201
(
6.18496e-91
7.97516e-77
2.71969e-65
8.52378e-56
6.36179e-48
2.35784e-41
7.69129e-36
3.46143e-31
3.06772e-27
7.11064e-24
5.41354e-21
1.62743e-18
2.24386e-16
1.60378e-14
6.57171e-13
1.67784e-11
2.86014e-10
3.44866e-09
3.08704e-08
2.13673e-07
1.18363e-06
5.40278e-06
2.08332e-05
6.93197e-05
0.000202688
0.000529028
0.00124932
0.00270084
0.00539958
0.0100715
0.0176623
0.0293189
0.0463408
0.070105
0.101975
0.143202
0.194836
0.25765
0.33209
0.418251
0.515879
0.624396
0.742954
0.870489
1.0058
1.14763
1.29473
1.44599
1.60043
1.75735
1.91635
2.07739
2.2408
2.40731
2.57802
2.75443
2.93833
3.13181
3.33714
3.5567
3.79291
4.0481
4.32438
4.62355
4.94695
5.29531
5.66865
6.06616
6.4861
6.92582
7.3817
7.8493
8.32343
8.79841
9.26827
9.72701
10.1689
10.5888
10.9822
11.3455
11.6762
11.9727
12.2345
12.4621
12.6566
12.82
12.9547
13.0636
13.1495
13.2157
13.2651
13.3007
13.3253
13.3414
13.3512
13.3566
13.3592
13.3601
13.3604
13.3603
13.3598
13.3576
13.3516
13.3389
13.316
13.2785
13.2213
13.1391
13.026
12.8764
12.6848
12.4464
12.1578
11.8169
11.4238
10.9807
10.4925
9.96614
9.41069
8.83677
8.25579
7.67925
7.11793
6.58127
6.07688
5.61026
5.18477
4.80173
4.46074
4.15993
3.8964
3.66652
3.46627
3.29146
3.13797
3.00191
2.87973
2.76835
2.66514
2.56799
2.47528
2.38582
2.29879
2.21368
2.13022
2.04828
1.96786
1.88901
1.81183
1.7364
1.66284
1.59123
1.52164
1.45415
1.3888
1.32563
1.26465
1.20588
1.14931
1.09493
1.04273
0.992671
0.944716
0.898825
0.85495
0.813041
0.773041
0.734895
0.698541
0.663918
0.630965
0.599618
0.569815
0.541493
0.51459
0.489046
0.4648
0.441793
0.419969
0.399273
0.379649
0.361047
0.343416
0.326707
0.310874
0.295873
0.281661
0.268196
0.25544
0.243356
0.231908
0.221062
0.210786
0.201049
0.191823
0.18308
0.174793
0.166938
0.159491
0.15243
0.145735
)
;

    fspectrum       nonuniform List<scalar> 
201
(
0.0277778
0.0289365
0.0300948
0.0312526
0.0324096
0.0335653
0.0347196
0.0358722
0.0370227
0.0381709
0.0393164
0.0404591
0.0415986
0.0427346
0.0438668
0.044995
0.0461188
0.047238
0.0483523
0.0494615
0.0505652
0.0516631
0.0527551
0.0538407
0.0549198
0.0559921
0.0570572
0.058115
0.0591651
0.0602074
0.0612415
0.0622671
0.0632841
0.0642921
0.065291
0.0662804
0.0672601
0.0682298
0.0691894
0.0701386
0.0710771
0.0720047
0.0729211
0.0738262
0.0747197
0.0756014
0.076471
0.0773284
0.0781733
0.0790056
0.0798249
0.0806311
0.081424
0.0822035
0.0829692
0.083721
0.0844587
0.0851822
0.0858912
0.0865856
0.0872652
0.0879298
0.0885793
0.0892134
0.0898321
0.0904352
0.0910225
0.0915938
0.0921492
0.0926883
0.093211
0.0937173
0.094207
0.09468
0.0951361
0.0955753
0.0959974
0.0964023
0.0967899
0.0971602
0.097513
0.0978483
0.0981659
0.0984658
0.0987479
0.0990121
0.0992584
0.0994867
0.099697
0.0998891
0.100063
0.100219
0.100356
0.100476
0.100577
0.100659
0.100724
0.10077
0.100806
0.100824
0.100877
0.100966
0.101089
0.101249
0.101443
0.101672
0.101937
0.102237
0.102572
0.102942
0.103347
0.103786
0.104261
0.104769
0.105313
0.10589
0.106502
0.107148
0.107827
0.108541
0.109287
0.110068
0.110881
0.111728
0.112607
0.113519
0.114463
0.115439
0.116447
0.117487
0.118559
0.119661
0.120795
0.121959
0.123153
0.124378
0.125632
0.126916
0.128229
0.129571
0.130941
0.13234
0.133766
0.13522
0.136702
0.13821
0.139745
0.141306
0.142892
0.144504
0.146141
0.147803
0.149489
0.151199
0.152932
0.154688
0.156467
0.158268
0.160091
0.161935
0.1638
0.165685
0.167591
0.169516
0.17146
0.173422
0.175403
0.177402
0.179417
0.18145
0.183499
0.185563
0.187643
0.189738
0.191846
0.193969
0.196105
0.198254
0.200415
0.202588
0.204772
0.206966
0.209171
0.211386
0.21361
0.215842
0.218083
0.220331
0.222586
0.224847
0.227115
0.229388
0.231666
0.233948
0.236234
0.238523
0.240816
0.24311
0.245406
0.247703
0.25
)
;

    amplitude           nonuniform List<scalar>
    200
    (
        3.03983e-40
        1.77494e-34
        9.93418e-30
        8.57909e-26
        1.65078e-22
        9.42235e-20
        1.99739e-17
        1.87879e-15
        9.03762e-14
        2.49193e-12
        4.31948e-11
        5.0748e-10
        4.2981e-09
        2.76084e-08
        1.40251e-07
        5.83345e-07
        2.04449e-06
        6.18406e-06
        1.64692e-05
        3.92706e-05
        8.50385e-05
        0.000169257
        0.000312849
        0.000541776
        0.000885769
        0.00137631
        0.00204412
        0.00291661
        0.00401555
        0.00535527
        0.00694165
        0.00877176
        0.0108343
        0.0131103
        0.0155749
        0.0181983
        0.0209477
        0.0237887
        0.0266869
        0.0296087
        0.0325225
        0.0353994
        0.0382141
        0.0409447
        0.0435734
        0.0460867
        0.0484753
        0.0507341
        0.0528623
        0.0548632
        0.0567439
        0.0585149
        0.0601898
        0.0617846
        0.063317
        0.0648055
        0.0662688
        0.0677244
        0.0691881
        0.0706729
        0.0721885
        0.0737402
        0.0753286
        0.0769492
        0.0785926
        0.0802439
        0.0818839
        0.0834888
        0.0850319
        0.0864838
        0.0878141
        0.0889923
        0.0899893
        0.0907781
        0.0913352
        0.091641
        0.0916807
        0.091444
        0.0909253
        0.0901236
        0.0890415
        0.0876844
        0.0860603
        0.0841782
        0.0820474
        0.0796765
        0.0770723
        0.0742387
        0.071176
        0.0678786
        0.0643341
        0.0605202
        0.0564009
        0.0519195
        0.0469862
        0.0414511
        0.0350393
        0.0313437
        0.021742
        0.0376564
        0.0486078
        0.0574979
        0.0651634
        0.0719785
        0.0781416
        0.0837647
        0.0889114
        0.093614
        0.0978838
        0.101718
        0.105102
        0.108018
        0.110445
        0.112361
        0.113752
        0.114611
        0.11494
        0.114757
        0.114091
        0.112988
        0.111506
        0.109712
        0.107683
        0.105496
        0.103231
        0.100958
        0.0987426
        0.0966375
        0.0946823
        0.0929035
        0.0913138
        0.0899136
        0.0886929
        0.0876327
        0.0867084
        0.0858915
        0.0851527
        0.0844636
        0.0837983
        0.083135
        0.0824562
        0.0817489
        0.0810044
        0.0802174
        0.0793857
        0.0785092
        0.0775894
        0.0766287
        0.0756304
        0.0745977
        0.0735344
        0.0724439
        0.0713299
        0.0701957
        0.0690446
        0.0678798
        0.0667042
        0.0655207
        0.0643319
        0.0631403
        0.0619483
        0.060758
        0.0595713
        0.0583902
        0.0572164
        0.0560515
        0.0548967
        0.0537535
        0.0526229
        0.0515061
        0.0504039
        0.0493171
        0.0482465
        0.0471926
        0.046156
        0.0451372
        0.0441364
        0.043154
        0.0421903
        0.0412452
        0.0403191
        0.0394119
        0.0385236
        0.0376542
        0.0368036
        0.0359718
        0.0351585
        0.0343637
        0.033587
        0.0328283
        0.0320875
        0.0313641
        0.0306579
        0.0299688
        0.0292963
        0.0286401
        0.0280001
        0.0273757
        0.0267669
        0.0261731
    );
    frequency           nonuniform List<scalar>
    200
    (
        0.0283571
        0.0295157
        0.0306737
        0.0318311
        0.0329874
        0.0341425
        0.0352959
        0.0364474
        0.0375968
        0.0387436
        0.0398878
        0.0410288
        0.0421666
        0.0433007
        0.0444309
        0.0455569
        0.0466784
        0.0477952
        0.0489069
        0.0500133
        0.0511142
        0.0522091
        0.0532979
        0.0543803
        0.0554559
        0.0565246
        0.0575861
        0.0586401
        0.0596863
        0.0607244
        0.0617543
        0.0627756
        0.0637881
        0.0647915
        0.0657857
        0.0667702
        0.067745
        0.0687096
        0.069664
        0.0706078
        0.0715409
        0.0724629
        0.0733737
        0.074273
        0.0751606
        0.0760362
        0.0768997
        0.0777509
        0.0785895
        0.0794152
        0.080228
        0.0810276
        0.0818137
        0.0825863
        0.0833451
        0.0840899
        0.0848205
        0.0855367
        0.0862384
        0.0869254
        0.0875975
        0.0882545
        0.0888963
        0.0895228
        0.0901336
        0.0907288
        0.0913082
        0.0918715
        0.0924187
        0.0929496
        0.0934642
        0.0939622
        0.0944435
        0.094908
        0.0953557
        0.0957863
        0.0961998
        0.0965961
        0.0969751
        0.0973366
        0.0976807
        0.0980071
        0.0983158
        0.0986068
        0.09888
        0.0991353
        0.0993726
        0.0995919
        0.0997931
        0.0999761
        0.100141
        0.100288
        0.100416
        0.100526
        0.100618
        0.100692
        0.100747
        0.100788
        0.100815
        0.100851
        0.100921
        0.101028
        0.101169
        0.101346
        0.101558
        0.101805
        0.102087
        0.102405
        0.102757
        0.103144
        0.103567
        0.104023
        0.104515
        0.105041
        0.105601
        0.106196
        0.106825
        0.107487
        0.108184
        0.108914
        0.109678
        0.110474
        0.111304
        0.112167
        0.113063
        0.113991
        0.114951
        0.115943
        0.116967
        0.118023
        0.11911
        0.120228
        0.121377
        0.122556
        0.123765
        0.125005
        0.126274
        0.127572
        0.1289
        0.130256
        0.13164
        0.133053
        0.134493
        0.135961
        0.137456
        0.138977
        0.140525
        0.142099
        0.143698
        0.145323
        0.146972
        0.148646
        0.150344
        0.152065
        0.15381
        0.155578
        0.157368
        0.159179
        0.161013
        0.162867
        0.164743
        0.166638
        0.168553
        0.170488
        0.172441
        0.174413
        0.176402
        0.17841
        0.180434
        0.182474
        0.184531
        0.186603
        0.18869
        0.190792
        0.192908
        0.195037
        0.197179
        0.199334
        0.201501
        0.20368
        0.205869
        0.208069
        0.210279
        0.212498
        0.214726
        0.216962
        0.219207
        0.221458
        0.223717
        0.225981
        0.228251
        0.230527
        0.232807
        0.235091
        0.237379
        0.239669
        0.241963
        0.244258
        0.246554
        0.248851
    );
    phaselag            nonuniform List<scalar>
    200
    (
        1.12089
        2.51125
        1.04677
        1.3328
        0.389154
        0.340234
        1.73206
        0.300068
        2.01711
        1.71364
        2.31056
        1.39717
        1.38015
        1.26755
        0.277187
        2.16091
        4.06933
        0.939111
        0.186408
        5.51974
        4.11812
        3.31528
        3.17839
        5.75346
        1.18177
        0.748679
        0.365033
        4.52345
        4.00575
        5.53452
        2.58905
        5.12664
        1.76258
        3.63582
        0.176257
        2.15173
        3.97605
        1.90831
        2.4518
        5.99316
        3.62195
        4.76236
        1.10715
        5.0021
        6.02991
        1.38434
        0.879825
        3.81606
        2.32345
        1.06623
        3.05261
        0.158378
        4.38152
        6.231
        5.91184
        5.56329
        0.696498
        6.27687
        3.80355
        4.70225
        5.52821
        0.109411
        3.5457
        1.0076
        3.74523
        3.72196
        3.15933
        1.4381
        5.63028
        5.61114
        1.14807
        2.96904
        4.09031
        2.25522
        1.68795
        3.83704
        3.63956
        2.56778
        1.36991
        5.963
        3.63401
        4.42252
        6.12138
        1.73234
        4.37034
        5.75004
        1.01244
        5.06684
        5.74372
        4.81599
        3.4859
        4.98874
        4.92541
        0.748423
        5.99634
        2.38745
        4.47038
        2.87249
        3.82554
        3.81748
        2.20044
        4.97362
        0.503333
        0.00756762
        0.945652
        2.19129
        3.84461
        4.58521
        4.75906
        5.21452
        4.26503
        2.10989
        3.35386
        4.10322
        3.84223
        1.44102
        3.57007
        4.85467
        0.224672
        3.03061
        3.38748
        3.71058
        1.73617
        2.0297
        4.459
        1.44932
        4.41715
        2.6462
        4.32181
        1.95951
        0.180489
        0.23907
        0.649941
        0.683822
        0.246637
        1.59559
        2.87511
        4.09125
        6.1808
        1.35099
        3.02258
        4.16264
        3.46087
        0.0932557
        1.98268
        1.01992
        1.53427
        5.55275
        5.87459
        1.75895
        2.30018
        2.97889
        5.46952
        4.03634
        5.00859
        3.64533
        5.48566
        3.14256
        0.0083477
        3.52429
        5.10206
        0.188836
        3.76336
        5.75201
        0.872658
        4.01
        1.06441
        3.74777
        1.81806
        0.96203
        5.09875
        4.84064
        5.12467
        2.27644
        4.93389
        0.824169
        3.29636
        0.184981
        0.0937355
        2.88776
        1.94393
        2.39391
        5.86665
        1.13026
        0.147066
        4.59205
        4.7756
        5.63273
        1.45142
        4.78395
        2.87383
        0.270303
        4.97278
        0.354007
        6.02231
        5.84544
        4.364
        0.803537
        3.31002
        6.18206
    );
    waveNumber          nonuniform List<vector>
    200
    (
        (0.0152657 0 0)
        (0.0158995 0 0)
        (0.0165344 0 0)
        (0.0171701 0 0)
        (0.0178066 0 0)
        (0.0184438 0 0)
        (0.0190815 0 0)
        (0.0197197 0 0)
        (0.0203582 0 0)
        (0.0209968 0 0)
        (0.0216356 0 0)
        (0.0222743 0 0)
        (0.0229129 0 0)
        (0.0235512 0 0)
        (0.0241891 0 0)
        (0.0248264 0 0)
        (0.0254631 0 0)
        (0.026099 0 0)
        (0.0267339 0 0)
        (0.0273678 0 0)
        (0.0280005 0 0)
        (0.0286319 0 0)
        (0.0292618 0 0)
        (0.02989 0 0)
        (0.0305165 0 0)
        (0.031141 0 0)
        (0.0317635 0 0)
        (0.0323838 0 0)
        (0.0330017 0 0)
        (0.0336171 0 0)
        (0.0342297 0 0)
        (0.0348395 0 0)
        (0.0354463 0 0)
        (0.0360499 0 0)
        (0.0366502 0 0)
        (0.0372469 0 0)
        (0.0378399 0 0)
        (0.038429 0 0)
        (0.0390141 0 0)
        (0.0395949 0 0)
        (0.0401714 0 0)
        (0.0407432 0 0)
        (0.0413102 0 0)
        (0.0418723 0 0)
        (0.0424292 0 0)
        (0.0429807 0 0)
        (0.0435267 0 0)
        (0.0440669 0 0)
        (0.0446012 0 0)
        (0.0451294 0 0)
        (0.0456512 0 0)
        (0.0461665 0 0)
        (0.0466751 0 0)
        (0.0471767 0 0)
        (0.0476712 0 0)
        (0.0481583 0 0)
        (0.0486379 0 0)
        (0.0491098 0 0)
        (0.0495738 0 0)
        (0.0500296 0 0)
        (0.0504771 0 0)
        (0.050916 0 0)
        (0.0513462 0 0)
        (0.0517675 0 0)
        (0.0521797 0 0)
        (0.0525825 0 0)
        (0.0529759 0 0)
        (0.0533596 0 0)
        (0.0537334 0 0)
        (0.0540971 0 0)
        (0.0544506 0 0)
        (0.0547937 0 0)
        (0.0551263 0 0)
        (0.055448 0 0)
        (0.0557589 0 0)
        (0.0560586 0 0)
        (0.0563472 0 0)
        (0.0566243 0 0)
        (0.0568899 0 0)
        (0.0571439 0 0)
        (0.057386 0 0)
        (0.0576162 0 0)
        (0.0578343 0 0)
        (0.0580402 0 0)
        (0.0582338 0 0)
        (0.058415 0 0)
        (0.0585837 0 0)
        (0.0587398 0 0)
        (0.0588832 0 0)
        (0.0590139 0 0)
        (0.0591316 0 0)
        (0.0592365 0 0)
        (0.0593284 0 0)
        (0.0594073 0 0)
        (0.059473 0 0)
        (0.0595257 0 0)
        (0.0595652 0 0)
        (0.0595949 0 0)
        (0.0596144 0 0)
        (0.0596398 0 0)
        (0.0596906 0 0)
        (0.0597668 0 0)
        (0.0598684 0 0)
        (0.0599956 0 0)
        (0.0601482 0 0)
        (0.0603265 0 0)
        (0.0605304 0 0)
        (0.0607601 0 0)
        (0.0610156 0 0)
        (0.0612971 0 0)
        (0.0616046 0 0)
        (0.0619383 0 0)
        (0.0622983 0 0)
        (0.0626848 0 0)
        (0.063098 0 0)
        (0.0635379 0 0)
        (0.0640049 0 0)
        (0.0644991 0 0)
        (0.0650207 0 0)
        (0.06557 0 0)
        (0.0661471 0 0)
        (0.0667525 0 0)
        (0.0673863 0 0)
        (0.0680489 0 0)
        (0.0687405 0 0)
        (0.0694616 0 0)
        (0.0702124 0 0)
        (0.0709933 0 0)
        (0.0718048 0 0)
        (0.0726472 0 0)
        (0.073521 0 0)
        (0.0744266 0 0)
        (0.0753645 0 0)
        (0.0763353 0 0)
        (0.0773394 0 0)
        (0.0783773 0 0)
        (0.0794497 0 0)
        (0.0805572 0 0)
        (0.0817004 0 0)
        (0.08288 0 0)
        (0.0840965 0 0)
        (0.0853508 0 0)
        (0.0866436 0 0)
        (0.0879756 0 0)
        (0.0893475 0 0)
        (0.0907604 0 0)
        (0.0922149 0 0)
        (0.0937119 0 0)
        (0.0952523 0 0)
        (0.0968371 0 0)
        (0.0984671 0 0)
        (0.100143 0 0)
        (0.101867 0 0)
        (0.103638 0 0)
        (0.105459 0 0)
        (0.10733 0 0)
        (0.109253 0 0)
        (0.111227 0 0)
        (0.113255 0 0)
        (0.115337 0 0)
        (0.117475 0 0)
        (0.119669 0 0)
        (0.12192 0 0)
        (0.12423 0 0)
        (0.126599 0 0)
        (0.129029 0 0)
        (0.131519 0 0)
        (0.134072 0 0)
        (0.136687 0 0)
        (0.139366 0 0)
        (0.142109 0 0)
        (0.144917 0 0)
        (0.14779 0 0)
        (0.150728 0 0)
        (0.153733 0 0)
        (0.156805 0 0)
        (0.159943 0 0)
        (0.163147 0 0)
        (0.166419 0 0)
        (0.169757 0 0)
        (0.173161 0 0)
        (0.176632 0 0)
        (0.180169 0 0)
        (0.183771 0 0)
        (0.187438 0 0)
        (0.191169 0 0)
        (0.194964 0 0)
        (0.198822 0 0)
        (0.202742 0 0)
        (0.206723 0 0)
        (0.210764 0 0)
        (0.214864 0 0)
        (0.219022 0 0)
        (0.223237 0 0)
        (0.227507 0 0)
        (0.231832 0 0)
        (0.23621 0 0)
        (0.24064 0 0)
        (0.24512 0 0)
        (0.24965 0 0)
    );

    frequencyAxis
    {
        discretisation      cosineStretchedFrequencyAxis;
        lowerFrequencyCutoff 0.0277778;
        upperFrequencyCutoff 0.25;
        writeSpectrum       true;
    }

    relaxationZone
    {
        relaxationScheme    Spatial;
        relaxationShape     Rectangular;
        beachType           Empty;
        relaxType           INLET;
        startX              ( 0 0 -1 );
        endX                ( 400 0 1 );
        orientation         ( 1 0 0 );
        fieldNames          ( alpha.water U );
    }
}

initCoeffs
{
    waveType            potentialCurrent;
    U                   ( 0 0 0 );
    Tsoft               24;
}



// ************************************************************************* //
