/*--------------------------------*- C++ -*----------------------------------*\
| =========                 |                                                 |
| \\      /  F ield         | OpenFOAM: The Open Source CFD Toolbox           |
|  \\    /   O peration     | Version:  v1912                                 |
|   \\  /    A nd           | Website:  www.openfoam.com                      |
|    \\/     M anipulation  |                                                 |
\*---------------------------------------------------------------------------*/
FoamFile
{
    version	2.0;
    format	ascii;
    class	dictionary;
    object	waveProperties;
}
// * * * * * * * * * * * * * * * * * * * * * * * * * * * * * * * * * * * * * //

seaLevel            -1;

seaLevelAsReference true;

relaxationNames     ( inlet );

initializationName  init;

inletCoeffs
{
    waveType            irregular;
    spectrum            JONSWAP;
    N                   200;
    Tsoft               24;
    Hs                  5.76;
    Tp                  8.89;
    gamma               3.3;
    depth               14.1;
    direction           ( 1 0 0 );
    spectramValues  nonuniform List<scalar> 
201
(
6.86041e-142
1.94849e-121
1.80393e-104
2.64221e-90
2.09397e-78
2.35763e-68
8.09551e-60
1.5587e-52
2.7439e-46
6.55607e-41
2.9316e-36
3.19048e-32
1.04889e-28
1.24536e-25
6.19435e-23
1.46088e-20
1.81239e-18
1.29083e-16
5.68286e-15
1.64657e-13
3.31218e-12
4.84169e-11
5.34858e-10
4.6182e-09
3.20872e-08
1.83971e-07
8.89646e-07
3.69829e-06
1.34373e-05
4.32975e-05
0.000125311
0.000329424
0.00079443
0.00177287
0.00368954
0.00720967
0.0133091
0.0233359
0.039052
0.0626438
0.0966959
0.144125
0.208076
0.291792
0.398464
0.531076
0.692261
0.884172
1.10839
1.36583
1.65677
1.98077
2.33678
2.72318
3.13783
3.57823
4.0416
4.52501
5.02552
5.54028
6.06668
6.60246
7.14581
7.69547
8.25081
8.8119
9.37952
9.95521
10.5412
11.1406
11.757
12.3947
13.0583
13.7532
14.4847
15.2584
16.0799
16.9546
17.8875
18.883
19.9449
21.0759
22.2776
23.5503
24.8927
26.3018
27.7729
29.2995
30.8733
32.4844
34.1216
35.7723
37.4231
39.0603
40.6699
42.2386
43.7535
45.2032
46.5776
47.8682
49.0686
50.1742
51.1823
52.0923
52.9049
53.6229
54.2501
54.7914
55.2528
55.6407
55.962
56.2239
56.4335
56.5978
56.7235
56.817
56.8842
56.9305
56.9607
56.9791
56.9892
56.994
56.9958
56.9962
56.9959
56.9913
56.9712
56.9175
56.8045
56.6004
56.2679
55.7654
55.0503
54.0814
52.8236
51.2524
49.3582
47.1506
44.6603
41.9385
39.0545
36.089
33.1271
30.25
27.5275
25.013
22.7414
20.7287
18.9747
17.4662
16.181
15.0912
14.1665
13.3764
12.6923
12.0889
11.5446
11.0424
10.5693
10.1163
9.67781
9.25054
8.83305
8.42499
8.02667
7.6387
7.26177
6.89654
6.54357
6.2033
5.87607
5.56207
5.2614
4.97405
4.69993
4.43887
4.19064
3.95494
3.73143
3.51975
3.3195
3.13024
2.95155
2.78297
2.62406
2.47435
2.33342
2.2008
2.07608
1.95883
1.84864
1.74512
1.64789
1.55658
1.47085
1.39037
1.31482
1.24391
1.17734
1.11485
1.05619
)
;

    fspectrum       nonuniform List<scalar> 
201
(
0.0277778
0.0288508
0.0299237
0.0309962
0.0320682
0.0331395
0.03421
0.0352794
0.0363476
0.0374144
0.0384797
0.0395433
0.040605
0.0416646
0.042722
0.043777
0.0448294
0.0458791
0.0469259
0.0479696
0.0490101
0.0500472
0.0510807
0.0521104
0.0531363
0.0541581
0.0551756
0.0561888
0.0571974
0.0582013
0.0592003
0.0601942
0.061183
0.0621663
0.0631442
0.0641164
0.0650828
0.0660431
0.0669974
0.0679453
0.0688868
0.0698217
0.0707499
0.0716711
0.0725854
0.0734924
0.0743921
0.0752843
0.0761689
0.0770457
0.0779146
0.0787755
0.0796282
0.0804725
0.0813084
0.0821358
0.0829544
0.0837641
0.0845649
0.0853565
0.0861389
0.0869119
0.0876755
0.0884294
0.0891736
0.089908
0.0906324
0.0913467
0.0920508
0.0927446
0.0934279
0.0941008
0.0947629
0.0954144
0.096055
0.0966846
0.0973031
0.0979106
0.0985067
0.0990915
0.0996649
0.100227
0.100777
0.101315
0.101842
0.102357
0.10286
0.10335
0.103829
0.104296
0.10475
0.105192
0.105621
0.106038
0.106442
0.106834
0.107213
0.107579
0.107933
0.108273
0.108601
0.108916
0.109218
0.109506
0.109782
0.110044
0.110293
0.110529
0.110752
0.110961
0.111157
0.11134
0.111509
0.111665
0.111807
0.111936
0.112051
0.112153
0.112241
0.112316
0.112377
0.112425
0.112459
0.112486
0.112515
0.1126
0.112743
0.112944
0.113201
0.113515
0.113886
0.114313
0.114797
0.115337
0.115934
0.116586
0.117293
0.118056
0.118874
0.119746
0.120673
0.121653
0.122687
0.123774
0.124913
0.126104
0.127347
0.128641
0.129985
0.13138
0.132823
0.134316
0.135856
0.137445
0.139079
0.140761
0.142487
0.144258
0.146074
0.147932
0.149833
0.151776
0.15376
0.155783
0.157846
0.159947
0.162086
0.164261
0.166472
0.168718
0.170998
0.17331
0.175654
0.17803
0.180435
0.182869
0.185331
0.18782
0.190335
0.192875
0.195438
0.198024
0.200632
0.20326
0.205908
0.208574
0.211258
0.213957
0.216672
0.2194
0.222141
0.224894
0.227657
0.23043
0.23321
0.235998
0.238791
0.241589
0.244391
0.247195
0.25
)
;

    amplitude           nonuniform List<scalar>
    200
    (
        1.44595e-62
        4.39927e-54
        5.32335e-47
        4.73785e-41
        5.02568e-36
        9.30904e-32
        4.08277e-28
        5.41393e-25
        2.64467e-22
        5.58845e-20
        5.82547e-18
        3.33756e-16
        1.14923e-14
        2.56185e-13
        3.93417e-12
        4.38497e-11
        3.70676e-10
        2.46655e-09
        1.33337e-08
        6.01463e-08
        2.31618e-07
        7.76411e-07
        2.30356e-06
        6.13631e-06
        1.48582e-05
        3.30524e-05
        6.81784e-05
        0.000131464
        0.000238652
        0.000410412
        0.000672298
        0.00105414
        0.00158892
        0.00231118
        0.00325517
        0.00445293
        0.00593237
        0.00771575
        0.00981844
        0.0122482
        0.0150048
        0.0180803
        0.0214595
        0.0251206
        0.0290365
        0.0331756
        0.0375034
        0.0419832
        0.0465773
        0.0512482
        0.0559593
        0.0606755
        0.065364
        0.0699948
        0.0745408
        0.0789783
        0.0832872
        0.087451
        0.091457
        0.0952962
        0.0989635
        0.102457
        0.10578
        0.108937
        0.111938
        0.114794
        0.117519
        0.120131
        0.122648
        0.125089
        0.127475
        0.129825
        0.132159
        0.134494
        0.136847
        0.139229
        0.141653
        0.144122
        0.146641
        0.149206
        0.151811
        0.154445
        0.157091
        0.159732
        0.162342
        0.164896
        0.167363
        0.169712
        0.171911
        0.173928
        0.175729
        0.177286
        0.178568
        0.179552
        0.180215
        0.18054
        0.180512
        0.180121
        0.179362
        0.178234
        0.176736
        0.174875
        0.172657
        0.17009
        0.167184
        0.16395
        0.160396
        0.156531
        0.152364
        0.147897
        0.143132
        0.138066
        0.13269
        0.12699
        0.120941
        0.114507
        0.107637
        0.100257
        0.0922577
        0.0834718
        0.0736279
        0.0622337
        0.0556674
        0.0571107
        0.0989097
        0.12766
        0.150969
        0.17101
        0.18873
        0.2046
        0.218854
        0.23159
        0.242815
        0.252481
        0.260512
        0.266819
        0.27133
        0.274002
        0.274846
        0.273936
        0.271413
        0.267491
        0.262437
        0.25656
        0.250183
        0.243623
        0.237162
        0.231035
        0.225414
        0.220402
        0.216039
        0.212308
        0.209144
        0.206449
        0.204108
        0.202003
        0.200022
        0.198071
        0.196075
        0.193983
        0.191762
        0.189395
        0.18688
        0.184221
        0.181428
        0.178514
        0.175494
        0.172381
        0.169191
        0.165938
        0.162633
        0.159291
        0.155923
        0.152538
        0.149149
        0.145762
        0.142388
        0.139033
        0.135705
        0.13241
        0.129152
        0.125937
        0.12277
        0.119653
        0.11659
        0.113583
        0.110636
        0.107748
        0.104923
        0.10216
        0.0994615
        0.0968268
        0.0942564
        0.0917502
        0.0893081
        0.0869296
        0.0846141
        0.0823609
        0.0801693
        0.0780381
    );
    frequency           nonuniform List<scalar>
    200
    (
        0.0283143
        0.0293873
        0.0304599
        0.0315322
        0.0326039
        0.0336747
        0.0347447
        0.0358135
        0.036881
        0.0379471
        0.0390115
        0.0400741
        0.0411348
        0.0421933
        0.0432495
        0.0443032
        0.0453543
        0.0464025
        0.0474478
        0.0484899
        0.0495286
        0.0505639
        0.0515956
        0.0526234
        0.0536472
        0.0546669
        0.0556822
        0.0566931
        0.0576993
        0.0587008
        0.0596972
        0.0606886
        0.0616746
        0.0626553
        0.0636303
        0.0645996
        0.065563
        0.0665203
        0.0674714
        0.0684161
        0.0693543
        0.0702858
        0.0712105
        0.0721282
        0.0730389
        0.0739422
        0.0748382
        0.0757266
        0.0766073
        0.0774801
        0.078345
        0.0792018
        0.0800503
        0.0808905
        0.0817221
        0.0825451
        0.0833592
        0.0841645
        0.0849607
        0.0857477
        0.0865254
        0.0872937
        0.0880525
        0.0888015
        0.0895408
        0.0902702
        0.0909895
        0.0916987
        0.0923977
        0.0930863
        0.0937643
        0.0944319
        0.0950887
        0.0957347
        0.0963698
        0.0969939
        0.0976068
        0.0982086
        0.0987991
        0.0993782
        0.0999458
        0.100502
        0.101046
        0.101579
        0.102099
        0.102608
        0.103105
        0.10359
        0.104062
        0.104523
        0.104971
        0.105406
        0.105829
        0.10624
        0.106638
        0.107024
        0.107396
        0.107756
        0.108103
        0.108437
        0.108759
        0.109067
        0.109362
        0.109644
        0.109913
        0.110169
        0.110411
        0.110641
        0.110857
        0.111059
        0.111249
        0.111425
        0.111587
        0.111736
        0.111872
        0.111994
        0.112102
        0.112197
        0.112279
        0.112347
        0.112401
        0.112442
        0.112472
        0.1125
        0.112557
        0.112672
        0.112843
        0.113072
        0.113358
        0.1137
        0.114099
        0.114555
        0.115067
        0.115636
        0.11626
        0.11694
        0.117675
        0.118465
        0.11931
        0.12021
        0.121163
        0.12217
        0.12323
        0.124343
        0.125508
        0.126726
        0.127994
        0.129313
        0.130682
        0.132101
        0.13357
        0.135086
        0.13665
        0.138262
        0.13992
        0.141624
        0.143373
        0.145166
        0.147003
        0.148883
        0.150805
        0.152768
        0.154772
        0.156815
        0.158897
        0.161017
        0.163174
        0.165367
        0.167595
        0.169858
        0.172154
        0.174482
        0.176842
        0.179232
        0.181652
        0.1841
        0.186576
        0.189077
        0.191605
        0.194156
        0.196731
        0.199328
        0.201946
        0.204584
        0.207241
        0.209916
        0.212608
        0.215315
        0.218036
        0.220771
        0.223518
        0.226276
        0.229043
        0.23182
        0.234604
        0.237395
        0.24019
        0.24299
        0.245793
        0.248597
    );
    phaselag            nonuniform List<scalar>
    200
    (
        1.12089
        2.51125
        1.04677
        1.3328
        0.389154
        0.340234
        1.73206
        0.300068
        2.01711
        1.71364
        2.31056
        1.39717
        1.38015
        1.26755
        0.277187
        2.16091
        4.06933
        0.939111
        0.186408
        5.51974
        4.11812
        3.31528
        3.17839
        5.75346
        1.18177
        0.748679
        0.365033
        4.52345
        4.00575
        5.53452
        2.58905
        5.12664
        1.76258
        3.63582
        0.176257
        2.15173
        3.97605
        1.90831
        2.4518
        5.99316
        3.62195
        4.76236
        1.10715
        5.0021
        6.02991
        1.38434
        0.879825
        3.81606
        2.32345
        1.06623
        3.05261
        0.158378
        4.38152
        6.231
        5.91184
        5.56329
        0.696498
        6.27687
        3.80355
        4.70225
        5.52821
        0.109411
        3.5457
        1.0076
        3.74523
        3.72196
        3.15933
        1.4381
        5.63028
        5.61114
        1.14807
        2.96904
        4.09031
        2.25522
        1.68795
        3.83704
        3.63956
        2.56778
        1.36991
        5.963
        3.63401
        4.42252
        6.12138
        1.73234
        4.37034
        5.75004
        1.01244
        5.06684
        5.74372
        4.81599
        3.4859
        4.98874
        4.92541
        0.748423
        5.99634
        2.38745
        4.47038
        2.87249
        3.82554
        3.81748
        2.20044
        4.97362
        0.503333
        0.00756762
        0.945652
        2.19129
        3.84461
        4.58521
        4.75906
        5.21452
        4.26503
        2.10989
        3.35386
        4.10322
        3.84223
        1.44102
        3.57007
        4.85467
        0.224672
        3.03061
        3.38748
        3.71058
        1.73617
        2.0297
        4.459
        1.44932
        4.41715
        2.6462
        4.32181
        1.95951
        0.180489
        0.23907
        0.649941
        0.683822
        0.246637
        1.59559
        2.87511
        4.09125
        6.1808
        1.35099
        3.02258
        4.16264
        3.46087
        0.0932557
        1.98268
        1.01992
        1.53427
        5.55275
        5.87459
        1.75895
        2.30018
        2.97889
        5.46952
        4.03634
        5.00859
        3.64533
        5.48566
        3.14256
        0.0083477
        3.52429
        5.10206
        0.188836
        3.76336
        5.75201
        0.872658
        4.01
        1.06441
        3.74777
        1.81806
        0.96203
        5.09875
        4.84064
        5.12467
        2.27644
        4.93389
        0.824169
        3.29636
        0.184981
        0.0937355
        2.88776
        1.94393
        2.39391
        5.86665
        1.13026
        0.147066
        4.59205
        4.7756
        5.63273
        1.45142
        4.78395
        2.87383
        0.270303
        4.97278
        0.354007
        6.02231
        5.84544
        4.364
        0.803537
        3.31002
        6.18206
    );
    waveNumber          nonuniform List<vector>
    200
    (
        (0.0152423 0 0)
        (0.0158292 0 0)
        (0.0164171 0 0)
        (0.0170058 0 0)
        (0.0175953 0 0)
        (0.0181856 0 0)
        (0.0187766 0 0)
        (0.0193682 0 0)
        (0.0199604 0 0)
        (0.0205531 0 0)
        (0.0211462 0 0)
        (0.0217398 0 0)
        (0.0223337 0 0)
        (0.0229279 0 0)
        (0.0235224 0 0)
        (0.0241169 0 0)
        (0.0247116 0 0)
        (0.0253063 0 0)
        (0.025901 0 0)
        (0.0264955 0 0)
        (0.0270899 0 0)
        (0.027684 0 0)
        (0.0282779 0 0)
        (0.0288713 0 0)
        (0.0294643 0 0)
        (0.0300567 0 0)
        (0.0306485 0 0)
        (0.0312397 0 0)
        (0.0318301 0 0)
        (0.0324196 0 0)
        (0.0330082 0 0)
        (0.0335958 0 0)
        (0.0341823 0 0)
        (0.0347676 0 0)
        (0.0353516 0 0)
        (0.0359343 0 0)
        (0.0365155 0 0)
        (0.0370952 0 0)
        (0.0376732 0 0)
        (0.0382495 0 0)
        (0.038824 0 0)
        (0.0393965 0 0)
        (0.039967 0 0)
        (0.0405354 0 0)
        (0.0411015 0 0)
        (0.0416653 0 0)
        (0.0422267 0 0)
        (0.0427854 0 0)
        (0.0433415 0 0)
        (0.0438949 0 0)
        (0.0444453 0 0)
        (0.0449927 0 0)
        (0.045537 0 0)
        (0.046078 0 0)
        (0.0466157 0 0)
        (0.0471498 0 0)
        (0.0476804 0 0)
        (0.0482072 0 0)
        (0.0487302 0 0)
        (0.0492492 0 0)
        (0.049764 0 0)
        (0.0502746 0 0)
        (0.0507809 0 0)
        (0.0512826 0 0)
        (0.0517797 0 0)
        (0.052272 0 0)
        (0.0527594 0 0)
        (0.0532418 0 0)
        (0.053719 0 0)
        (0.0541909 0 0)
        (0.0546573 0 0)
        (0.0551182 0 0)
        (0.0555734 0 0)
        (0.0560226 0 0)
        (0.0564659 0 0)
        (0.0569031 0 0)
        (0.057334 0 0)
        (0.0577585 0 0)
        (0.0581765 0 0)
        (0.0585877 0 0)
        (0.0589922 0 0)
        (0.0593897 0 0)
        (0.0597802 0 0)
        (0.0601634 0 0)
        (0.0605393 0 0)
        (0.0609077 0 0)
        (0.0612685 0 0)
        (0.0616216 0 0)
        (0.0619668 0 0)
        (0.062304 0 0)
        (0.0626332 0 0)
        (0.062954 0 0)
        (0.0632666 0 0)
        (0.0635707 0 0)
        (0.0638662 0 0)
        (0.064153 0 0)
        (0.064431 0 0)
        (0.0647 0 0)
        (0.0649601 0 0)
        (0.0652111 0 0)
        (0.0654528 0 0)
        (0.0656852 0 0)
        (0.0659082 0 0)
        (0.0661217 0 0)
        (0.0663257 0 0)
        (0.0665199 0 0)
        (0.0667045 0 0)
        (0.0668792 0 0)
        (0.067044 0 0)
        (0.0671988 0 0)
        (0.0673436 0 0)
        (0.0674783 0 0)
        (0.0676029 0 0)
        (0.0677173 0 0)
        (0.0678215 0 0)
        (0.0679153 0 0)
        (0.0679989 0 0)
        (0.068072 0 0)
        (0.0681348 0 0)
        (0.0681871 0 0)
        (0.0682291 0 0)
        (0.0682605 0 0)
        (0.0682841 0 0)
        (0.0683056 0 0)
        (0.0683498 0 0)
        (0.0684382 0 0)
        (0.0685708 0 0)
        (0.0687478 0 0)
        (0.0689692 0 0)
        (0.0692354 0 0)
        (0.0695463 0 0)
        (0.0699023 0 0)
        (0.0703036 0 0)
        (0.0707506 0 0)
        (0.0712435 0 0)
        (0.0717827 0 0)
        (0.0723687 0 0)
        (0.0730018 0 0)
        (0.0736827 0 0)
        (0.0744117 0 0)
        (0.0751895 0 0)
        (0.0760167 0 0)
        (0.076894 0 0)
        (0.0778221 0 0)
        (0.0788018 0 0)
        (0.0798339 0 0)
        (0.0809192 0 0)
        (0.0820588 0 0)
        (0.0832535 0 0)
        (0.0845045 0 0)
        (0.0858129 0 0)
        (0.0871798 0 0)
        (0.0886064 0 0)
        (0.0900941 0 0)
        (0.0916442 0 0)
        (0.0932581 0 0)
        (0.0949373 0 0)
        (0.0966834 0 0)
        (0.0984979 0 0)
        (0.100382 0 0)
        (0.102339 0 0)
        (0.104369 0 0)
        (0.106474 0 0)
        (0.108656 0 0)
        (0.110917 0 0)
        (0.113259 0 0)
        (0.115684 0 0)
        (0.118194 0 0)
        (0.12079 0 0)
        (0.123474 0 0)
        (0.126249 0 0)
        (0.129115 0 0)
        (0.132075 0 0)
        (0.13513 0 0)
        (0.138281 0 0)
        (0.14153 0 0)
        (0.144879 0 0)
        (0.148328 0 0)
        (0.151877 0 0)
        (0.155528 0 0)
        (0.159282 0 0)
        (0.163138 0 0)
        (0.167097 0 0)
        (0.171158 0 0)
        (0.175321 0 0)
        (0.179585 0 0)
        (0.18395 0 0)
        (0.188415 0 0)
        (0.192979 0 0)
        (0.197639 0 0)
        (0.202395 0 0)
        (0.207244 0 0)
        (0.212185 0 0)
        (0.217216 0 0)
        (0.222334 0 0)
        (0.227537 0 0)
        (0.232822 0 0)
        (0.238188 0 0)
        (0.24363 0 0)
        (0.249147 0 0)
    );

    frequencyAxis
    {
        discretisation      cosineStretchedFrequencyAxis;
        lowerFrequencyCutoff 0.0277778;
        upperFrequencyCutoff 0.25;
        writeSpectrum       true;
    }

    relaxationZone
    {
        relaxationScheme    Spatial;
        relaxationShape     Rectangular;
        beachType           Empty;
        relaxType           INLET;
        startX              ( 0 0 -1 );
        endX                ( 400 0 1 );
        orientation         ( 1 0 0 );
        fieldNames          ( alpha.water U );
    }
}

initCoeffs
{
    waveType            potentialCurrent;
    U                   ( 0 0 0 );
    Tsoft               24;
}



// ************************************************************************* //
