/*--------------------------------*- C++ -*----------------------------------*\
| =========                 |                                                 |
| \\      /  F ield         | OpenFOAM: The Open Source CFD Toolbox           |
|  \\    /   O peration     | Version:  v1912                                 |
|   \\  /    A nd           | Website:  www.openfoam.com                      |
|    \\/     M anipulation  |                                                 |
\*---------------------------------------------------------------------------*/
FoamFile
{
    version     2.0;
    format      ascii;
    class       polyBoundaryMesh;
    location    "constant/polyMesh";
    object      boundary;
}
// * * * * * * * * * * * * * * * * * * * * * * * * * * * * * * * * * * * * * //

7
(
    atmosphere
    {
        type            patch;
        nFaces          164;
        startFace       28285;
    }
    inlet
    {
        type            patch;
        nFaces          0;
        startFace       28449;
    }
    outlet
    {
        type            patch;
        nFaces          0;
        startFace       28449;
    }
    bottom
    {
        type            wall;
        inGroups        1(wall);
        nFaces          164;
        startFace       28449;
    }
    frontBack
    {
        type            empty;
        inGroups        1(empty);
        nFaces          28536;
        startFace       28613;
    }
    procBoundary5to4
    {
        type            processor;
        inGroups        1(processor);
        nFaces          87;
        startFace       57149;
        matchTolerance  0.0001;
        transform       unknown;
        myProcNo        5;
        neighbProcNo    4;
    }
    procBoundary5to6
    {
        type            processor;
        inGroups        1(processor);
        nFaces          87;
        startFace       57236;
        matchTolerance  0.0001;
        transform       unknown;
        myProcNo        5;
        neighbProcNo    6;
    }
)

// ************************************************************************* //
