/*--------------------------------*- C++ -*----------------------------------*\
| =========                 |                                                 |
| \\      /  F ield         | OpenFOAM: The Open Source CFD Toolbox           |
|  \\    /   O peration     | Version:  v1912                                 |
|   \\  /    A nd           | Website:  www.openfoam.com                      |
|    \\/     M anipulation  |                                                 |
\*---------------------------------------------------------------------------*/
FoamFile
{
    version	2.0;
    format	ascii;
    class	dictionary;
    object	waveProperties;
}
// * * * * * * * * * * * * * * * * * * * * * * * * * * * * * * * * * * * * * //

seaLevel            1.97;

seaLevelAsReference true;

relaxationNames     ( inlet );

initializationName  init;

inletCoeffs
{
    waveType            irregular;
    spectrum            JONSWAP;
    N                   200;
    Tsoft               24;
    Hs                  5.97;
    Tp                  8.86;
    gamma               3.3;
    depth               14.1;
    direction           ( 1 0 0 );
    spectramValues  nonuniform List<scalar> 
201
(
7.69297e-144
3.56704e-123
5.08784e-106
1.09069e-91
1.20926e-79
1.8309e-69
8.16689e-61
1.98192e-53
4.28299e-47
1.22765e-41
6.45411e-37
8.11388e-33
3.03408e-29
4.0422e-26
2.22922e-23
5.76813e-21
7.77845e-19
5.97256e-17
2.8141e-15
8.6701e-14
1.84385e-12
2.83495e-11
3.27893e-10
2.9521e-09
2.13088e-08
1.26506e-07
6.31577e-07
2.70331e-06
1.0089e-05
3.33188e-05
9.86393e-05
0.000264776
0.000650929
0.00147866
0.00312821
0.00620639
0.0116195
0.0206412
0.0349637
0.0567212
0.0884764
0.133167
0.194012
0.274388
0.377676
0.507107
0.665606
0.855648
1.07915
1.33737
1.6309
1.9596
2.32265
2.71862
3.14549
3.60083
4.08184
4.58551
5.10874
5.6485
6.2019
6.76638
7.33977
7.92045
8.5074
9.10027
9.69947
10.3062
10.9223
11.5506
12.1945
12.8582
13.5462
14.2637
15.0164
15.8099
16.6501
17.5428
18.4936
19.5075
20.5889
21.7414
22.9675
24.2684
25.644
27.0923
28.6097
30.1907
31.8279
33.5122
35.2329
36.9777
38.7332
40.4854
42.2196
43.9215
45.577
47.1732
48.6981
50.1417
51.4955
52.753
53.9099
54.9637
55.914
56.762
57.5106
58.1642
58.728
59.2083
59.6119
59.9462
60.2186
60.4365
60.6072
60.7379
60.835
60.9049
60.953
60.9844
61.0035
61.014
61.019
61.0209
61.0213
61.021
61.0158
60.9935
60.9336
60.8077
60.5805
60.2102
59.6511
58.8561
57.78
56.3852
54.6461
52.5544
50.1235
47.3904
44.4149
41.2757
38.0634
34.8716
31.788
28.8864
26.2217
23.8277
21.7178
19.8882
18.3213
16.9907
15.8647
14.9095
14.092
13.3817
12.7516
12.1797
11.6486
11.1455
10.662
10.1927
9.7349
9.28754
8.85057
8.42448
8.00999
7.60786
7.21878
6.84331
6.48189
6.13481
5.80223
5.48421
5.18069
4.89152
4.61649
4.35529
4.10758
3.87296
3.65101
3.44128
3.24328
3.05652
2.88051
2.71476
2.55876
2.41202
2.27408
2.14445
2.02268
1.90834
1.801
1.70025
1.6057
1.517
1.43377
1.35569
1.28244
1.21372
1.14925
)
;

    fspectrum       nonuniform List<scalar> 
201
(
0.0277778
0.028847
0.0299161
0.0309848
0.032053
0.0331206
0.0341873
0.035253
0.0363175
0.0373806
0.0384423
0.0395022
0.0405603
0.0416164
0.0426703
0.0437219
0.0447709
0.0458173
0.0468608
0.0479013
0.0489386
0.0499725
0.051003
0.0520298
0.0530528
0.0540718
0.0550866
0.0560971
0.0571031
0.0581045
0.0591012
0.0600928
0.0610794
0.0620607
0.0630366
0.0640069
0.0649716
0.0659303
0.066883
0.0678295
0.0687697
0.0697035
0.0706306
0.071551
0.0724644
0.0733708
0.07427
0.0751618
0.0760462
0.0769229
0.0777919
0.0786529
0.079506
0.0803509
0.0811874
0.0820156
0.0828352
0.083646
0.0844481
0.0852412
0.0860252
0.0868001
0.0875656
0.0883217
0.0890682
0.089805
0.0905321
0.0912492
0.0919563
0.0926533
0.09334
0.0940164
0.0946823
0.0953377
0.0959823
0.0966163
0.0972393
0.0978514
0.0984524
0.0990422
0.0996208
0.100188
0.100744
0.101288
0.101821
0.102342
0.102851
0.103348
0.103834
0.104307
0.104769
0.105218
0.105655
0.106079
0.106492
0.106892
0.107279
0.107654
0.108016
0.108365
0.108702
0.109026
0.109337
0.109636
0.109921
0.110194
0.110453
0.110699
0.110933
0.111153
0.11136
0.111553
0.111734
0.111901
0.112055
0.112196
0.112323
0.112437
0.112538
0.112625
0.112699
0.112759
0.112806
0.11284
0.112867
0.112896
0.112984
0.11313
0.113335
0.113598
0.11392
0.1143
0.114737
0.115233
0.115785
0.116396
0.117063
0.117787
0.118568
0.119405
0.120297
0.121245
0.122248
0.123305
0.124417
0.125582
0.126801
0.128072
0.129395
0.13077
0.132195
0.133671
0.135197
0.136771
0.138394
0.140065
0.141783
0.143547
0.145356
0.14721
0.149108
0.151049
0.153032
0.155057
0.157122
0.159227
0.161371
0.163553
0.165771
0.168026
0.170315
0.172639
0.174995
0.177384
0.179804
0.182253
0.184732
0.187238
0.189772
0.192331
0.194914
0.197521
0.200151
0.202802
0.205473
0.208163
0.210871
0.213596
0.216336
0.21909
0.221858
0.224638
0.227429
0.230229
0.233038
0.235854
0.238676
0.241502
0.244333
0.247166
0.25
)
;

    amplitude           nonuniform List<scalar>
    200
    (
        1.95294e-63
        7.3751e-55
        1.07965e-47
        1.13655e-41
        1.39806e-36
        2.95155e-32
        1.45331e-28
        2.13525e-25
        1.14245e-22
        2.61765e-20
        2.93276e-18
        1.79199e-16
        6.53615e-15
        1.53416e-13
        2.46758e-12
        2.86712e-11
        2.5161e-10
        1.73172e-09
        9.65088e-09
        4.47502e-08
        1.76689e-07
        6.05884e-07
        1.83518e-06
        4.98178e-06
        1.22727e-05
        2.77366e-05
        5.80512e-05
        0.000113444
        0.000208492
        0.000362646
        0.000600324
        0.000950477
        0.00144561
        0.00212034
        0.00300959
        0.00414669
        0.00556143
        0.00727842
        0.00931575
        0.011684
        0.014386
        0.0174165
        0.0207628
        0.0244053
        0.0283187
        0.0324728
        0.0368336
        0.0413649
        0.0460288
        0.0507874
        0.0556031
        0.0604396
        0.0652629
        0.0700411
        0.0747456
        0.0793506
        0.0838343
        0.088178
        0.092367
        0.0963905
        0.100241
        0.103916
        0.107415
        0.110741
        0.113903
        0.116911
        0.119778
        0.122519
        0.125152
        0.127697
        0.130173
        0.132601
        0.135001
        0.137391
        0.13979
        0.142211
        0.144667
        0.147167
        0.149716
        0.152314
        0.154958
        0.157638
        0.160344
        0.163057
        0.165757
        0.168418
        0.171012
        0.17351
        0.175879
        0.178086
        0.180098
        0.181884
        0.183413
        0.184657
        0.185591
        0.186195
        0.18645
        0.186344
        0.185868
        0.185017
        0.18379
        0.182188
        0.180217
        0.177885
        0.175199
        0.172169
        0.168807
        0.165122
        0.161121
        0.156813
        0.1522
        0.147285
        0.142062
        0.136524
        0.130653
        0.124425
        0.117803
        0.110734
        0.10314
        0.09491
        0.0858711
        0.0757439
        0.0640222
        0.0572671
        0.0597875
        0.103545
        0.133642
        0.15804
        0.179013
        0.197549
        0.214138
        0.22902
        0.242291
        0.253954
        0.263954
        0.272206
        0.278616
        0.283109
        0.285648
        0.286251
        0.285008
        0.282086
        0.277722
        0.272215
        0.265899
        0.259123
        0.252221
        0.245485
        0.239152
        0.233389
        0.228292
        0.223884
        0.220132
        0.216955
        0.214242
        0.211867
        0.209703
        0.207638
        0.205575
        0.203444
        0.201196
        0.198803
        0.196253
        0.193547
        0.190692
        0.1877
        0.184586
        0.181365
        0.178054
        0.174666
        0.171218
        0.167723
        0.164193
        0.160641
        0.157078
        0.153514
        0.149958
        0.14642
        0.142907
        0.139425
        0.135981
        0.132581
        0.129229
        0.125929
        0.122685
        0.1195
        0.116377
        0.113318
        0.110323
        0.107395
        0.104535
        0.101742
        0.0990176
        0.0963614
        0.0937734
        0.091253
        0.0887998
        0.086413
        0.0840916
        0.0818348
    );
    frequency           nonuniform List<scalar>
    200
    (
        0.0283124
        0.0293816
        0.0304505
        0.0315189
        0.0325868
        0.0336539
        0.0347201
        0.0357852
        0.0368491
        0.0379115
        0.0389723
        0.0400313
        0.0410884
        0.0421434
        0.0431961
        0.0442464
        0.0452941
        0.046339
        0.047381
        0.0484199
        0.0494556
        0.0504878
        0.0515164
        0.0525413
        0.0535623
        0.0545792
        0.0555918
        0.0566001
        0.0576038
        0.0586028
        0.059597
        0.0605861
        0.0615701
        0.0625487
        0.0635218
        0.0644892
        0.0654509
        0.0664066
        0.0673563
        0.0682996
        0.0692366
        0.070167
        0.0710908
        0.0720077
        0.0729176
        0.0738204
        0.0747159
        0.075604
        0.0764845
        0.0773574
        0.0782224
        0.0790795
        0.0799284
        0.0807692
        0.0816015
        0.0824254
        0.0832406
        0.0840471
        0.0848447
        0.0856332
        0.0864127
        0.0871828
        0.0879436
        0.0886949
        0.0894366
        0.0901685
        0.0908906
        0.0916028
        0.0923048
        0.0929966
        0.0936782
        0.0943494
        0.09501
        0.09566
        0.0962993
        0.0969278
        0.0975453
        0.0981519
        0.0987473
        0.0993315
        0.0999045
        0.100466
        0.101016
        0.101555
        0.102081
        0.102596
        0.1031
        0.103591
        0.104071
        0.104538
        0.104993
        0.105436
        0.105867
        0.106286
        0.106692
        0.107085
        0.107466
        0.107835
        0.108191
        0.108534
        0.108864
        0.109182
        0.109487
        0.109778
        0.110057
        0.110323
        0.110576
        0.110816
        0.111043
        0.111256
        0.111457
        0.111644
        0.111818
        0.111978
        0.112126
        0.11226
        0.11238
        0.112488
        0.112581
        0.112662
        0.112729
        0.112783
        0.112823
        0.112853
        0.112881
        0.11294
        0.113057
        0.113233
        0.113467
        0.113759
        0.11411
        0.114518
        0.114985
        0.115509
        0.116091
        0.116729
        0.117425
        0.118177
        0.118986
        0.119851
        0.120771
        0.121746
        0.122777
        0.123861
        0.125
        0.126192
        0.127436
        0.128733
        0.130082
        0.131482
        0.132933
        0.134434
        0.135984
        0.137583
        0.13923
        0.140924
        0.142665
        0.144451
        0.146283
        0.148159
        0.150078
        0.152041
        0.154045
        0.15609
        0.158175
        0.160299
        0.162462
        0.164662
        0.166898
        0.16917
        0.171477
        0.173817
        0.17619
        0.178594
        0.181028
        0.183493
        0.185985
        0.188505
        0.191051
        0.193622
        0.196218
        0.198836
        0.201476
        0.204137
        0.206818
        0.209517
        0.212233
        0.214966
        0.217713
        0.220474
        0.223248
        0.226033
        0.228829
        0.231633
        0.234446
        0.237265
        0.240089
        0.242918
        0.245749
        0.248583
    );
    phaselag            nonuniform List<scalar>
    200
    (
        1.12089
        2.51125
        1.04677
        1.3328
        0.389154
        0.340234
        1.73206
        0.300068
        2.01711
        1.71364
        2.31056
        1.39717
        1.38015
        1.26755
        0.277187
        2.16091
        4.06933
        0.939111
        0.186408
        5.51974
        4.11812
        3.31528
        3.17839
        5.75346
        1.18177
        0.748679
        0.365033
        4.52345
        4.00575
        5.53452
        2.58905
        5.12664
        1.76258
        3.63582
        0.176257
        2.15173
        3.97605
        1.90831
        2.4518
        5.99316
        3.62195
        4.76236
        1.10715
        5.0021
        6.02991
        1.38434
        0.879825
        3.81606
        2.32345
        1.06623
        3.05261
        0.158378
        4.38152
        6.231
        5.91184
        5.56329
        0.696498
        6.27687
        3.80355
        4.70225
        5.52821
        0.109411
        3.5457
        1.0076
        3.74523
        3.72196
        3.15933
        1.4381
        5.63028
        5.61114
        1.14807
        2.96904
        4.09031
        2.25522
        1.68795
        3.83704
        3.63956
        2.56778
        1.36991
        5.963
        3.63401
        4.42252
        6.12138
        1.73234
        4.37034
        5.75004
        1.01244
        5.06684
        5.74372
        4.81599
        3.4859
        4.98874
        4.92541
        0.748423
        5.99634
        2.38745
        4.47038
        2.87249
        3.82554
        3.81748
        2.20044
        4.97362
        0.503333
        0.00756762
        0.945652
        2.19129
        3.84461
        4.58521
        4.75906
        5.21452
        4.26503
        2.10989
        3.35386
        4.10322
        3.84223
        1.44102
        3.57007
        4.85467
        0.224672
        3.03061
        3.38748
        3.71058
        1.73617
        2.0297
        4.459
        1.44932
        4.41715
        2.6462
        4.32181
        1.95951
        0.180489
        0.23907
        0.649941
        0.683822
        0.246637
        1.59559
        2.87511
        4.09125
        6.1808
        1.35099
        3.02258
        4.16264
        3.46087
        0.0932557
        1.98268
        1.01992
        1.53427
        5.55275
        5.87459
        1.75895
        2.30018
        2.97889
        5.46952
        4.03634
        5.00859
        3.64533
        5.48566
        3.14256
        0.0083477
        3.52429
        5.10206
        0.188836
        3.76336
        5.75201
        0.872658
        4.01
        1.06441
        3.74777
        1.81806
        0.96203
        5.09875
        4.84064
        5.12467
        2.27644
        4.93389
        0.824169
        3.29636
        0.184981
        0.0937355
        2.88776
        1.94393
        2.39391
        5.86665
        1.13026
        0.147066
        4.59205
        4.7756
        5.63273
        1.45142
        4.78395
        2.87383
        0.270303
        4.97278
        0.354007
        6.02231
        5.84544
        4.364
        0.803537
        3.31002
        6.18206
    );
    waveNumber          nonuniform List<vector>
    200
    (
        (0.0152412 0 0)
        (0.0158261 0 0)
        (0.0164119 0 0)
        (0.0169985 0 0)
        (0.0175859 0 0)
        (0.0181741 0 0)
        (0.018763 0 0)
        (0.0193525 0 0)
        (0.0199426 0 0)
        (0.0205332 0 0)
        (0.0211243 0 0)
        (0.0217159 0 0)
        (0.0223077 0 0)
        (0.0228999 0 0)
        (0.0234923 0 0)
        (0.0240848 0 0)
        (0.0246775 0 0)
        (0.0252702 0 0)
        (0.0258629 0 0)
        (0.0264556 0 0)
        (0.027048 0 0)
        (0.0276403 0 0)
        (0.0282322 0 0)
        (0.0288238 0 0)
        (0.029415 0 0)
        (0.0300057 0 0)
        (0.0305958 0 0)
        (0.0311852 0 0)
        (0.031774 0 0)
        (0.0323619 0 0)
        (0.0329489 0 0)
        (0.0335349 0 0)
        (0.03412 0 0)
        (0.0347038 0 0)
        (0.0352865 0 0)
        (0.0358678 0 0)
        (0.0364478 0 0)
        (0.0370263 0 0)
        (0.0376031 0 0)
        (0.0381784 0 0)
        (0.0387518 0 0)
        (0.0393234 0 0)
        (0.039893 0 0)
        (0.0404606 0 0)
        (0.041026 0 0)
        (0.0415891 0 0)
        (0.0421499 0 0)
        (0.0427082 0 0)
        (0.0432639 0 0)
        (0.0438169 0 0)
        (0.0443671 0 0)
        (0.0449144 0 0)
        (0.0454586 0 0)
        (0.0459997 0 0)
        (0.0465376 0 0)
        (0.047072 0 0)
        (0.047603 0 0)
        (0.0481303 0 0)
        (0.0486539 0 0)
        (0.0491735 0 0)
        (0.0496892 0 0)
        (0.0502008 0 0)
        (0.0507081 0 0)
        (0.0512111 0 0)
        (0.0517095 0 0)
        (0.0522033 0 0)
        (0.0526923 0 0)
        (0.0531764 0 0)
        (0.0536555 0 0)
        (0.0541294 0 0)
        (0.054598 0 0)
        (0.0550612 0 0)
        (0.0555187 0 0)
        (0.0559706 0 0)
        (0.0564167 0 0)
        (0.0568567 0 0)
        (0.0572907 0 0)
        (0.0577184 0 0)
        (0.0581397 0 0)
        (0.0585545 0 0)
        (0.0589627 0 0)
        (0.0593641 0 0)
        (0.0597586 0 0)
        (0.060146 0 0)
        (0.0605262 0 0)
        (0.0608991 0 0)
        (0.0612646 0 0)
        (0.0616226 0 0)
        (0.0619728 0 0)
        (0.0623152 0 0)
        (0.0626497 0 0)
        (0.0629762 0 0)
        (0.0632944 0 0)
        (0.0636044 0 0)
        (0.0639059 0 0)
        (0.064199 0 0)
        (0.0644834 0 0)
        (0.064759 0 0)
        (0.0650258 0 0)
        (0.0652837 0 0)
        (0.0655325 0 0)
        (0.0657721 0 0)
        (0.0660026 0 0)
        (0.0662236 0 0)
        (0.0664353 0 0)
        (0.0666374 0 0)
        (0.06683 0 0)
        (0.0670129 0 0)
        (0.0671861 0 0)
        (0.0673494 0 0)
        (0.0675029 0 0)
        (0.0676464 0 0)
        (0.06778 0 0)
        (0.0679034 0 0)
        (0.0680168 0 0)
        (0.06812 0 0)
        (0.068213 0 0)
        (0.0682958 0 0)
        (0.0683683 0 0)
        (0.0684305 0 0)
        (0.0684824 0 0)
        (0.0685239 0 0)
        (0.0685551 0 0)
        (0.0685785 0 0)
        (0.0686002 0 0)
        (0.0686455 0 0)
        (0.0687362 0 0)
        (0.0688723 0 0)
        (0.069054 0 0)
        (0.0692812 0 0)
        (0.0695544 0 0)
        (0.0698735 0 0)
        (0.0702389 0 0)
        (0.0706509 0 0)
        (0.0711097 0 0)
        (0.0716157 0 0)
        (0.0721694 0 0)
        (0.072771 0 0)
        (0.0734212 0 0)
        (0.0741204 0 0)
        (0.0748692 0 0)
        (0.0756681 0 0)
        (0.076518 0 0)
        (0.0774194 0 0)
        (0.0783731 0 0)
        (0.07938 0 0)
        (0.0804408 0 0)
        (0.0815567 0 0)
        (0.0827284 0 0)
        (0.0839571 0 0)
        (0.0852439 0 0)
        (0.08659 0 0)
        (0.0879966 0 0)
        (0.0894649 0 0)
        (0.0909964 0 0)
        (0.0925924 0 0)
        (0.0942545 0 0)
        (0.0959843 0 0)
        (0.0977833 0 0)
        (0.0996532 0 0)
        (0.101596 0 0)
        (0.103613 0 0)
        (0.105706 0 0)
        (0.107877 0 0)
        (0.110129 0 0)
        (0.112462 0 0)
        (0.114879 0 0)
        (0.117382 0 0)
        (0.119973 0 0)
        (0.122653 0 0)
        (0.125425 0 0)
        (0.128291 0 0)
        (0.131251 0 0)
        (0.134308 0 0)
        (0.137463 0 0)
        (0.140719 0 0)
        (0.144075 0 0)
        (0.147533 0 0)
        (0.151094 0 0)
        (0.154759 0 0)
        (0.158528 0 0)
        (0.162402 0 0)
        (0.166381 0 0)
        (0.170464 0 0)
        (0.174652 0 0)
        (0.178944 0 0)
        (0.183339 0 0)
        (0.187836 0 0)
        (0.192433 0 0)
        (0.19713 0 0)
        (0.201925 0 0)
        (0.206815 0 0)
        (0.211799 0 0)
        (0.216875 0 0)
        (0.222041 0 0)
        (0.227293 0 0)
        (0.23263 0 0)
        (0.238048 0 0)
        (0.243545 0 0)
        (0.249118 0 0)
    );

    frequencyAxis
    {
        discretisation      cosineStretchedFrequencyAxis;
        lowerFrequencyCutoff 0.0277778;
        upperFrequencyCutoff 0.25;
        writeSpectrum       true;
    }

    relaxationZone
    {
        relaxationScheme    Spatial;
        relaxationShape     Rectangular;
        beachType           Empty;
        relaxType           INLET;
        startX              ( 0 0 -1 );
        endX                ( 400 0 1 );
        orientation         ( 1 0 0 );
        fieldNames          ( alpha.water U );
    }
}

initCoeffs
{
    waveType            potentialCurrent;
    U                   ( 0 0 0 );
    Tsoft               24;
}



// ************************************************************************* //
